 Abaqus/Standard 6.13-1                  DATE 17-ÎåÔÂ-2015 TIME 14:46:32
 SUMMARY OF JOB INFORMATION:
 STEP  INC ATT SEVERE EQUIL TOTAL  TOTAL      STEP       INC OF       DOF    IF
               DISCON ITERS ITERS  TIME/    TIME/LPF    TIME/LPF    MONITOR RIKS
               ITERS               FREQ
   1     1   1U    0     1     1  0.000      0.000      1.000     
   1     1   2     0     4     4  0.250      0.250      0.2500    
   1     2   1     0     8     8  0.500      0.500      0.2500    
   1     3   1U    0     9     9  0.500      0.500      0.2500    
   1     3   2     0     9     9  0.625      0.625      0.1250    
   1     4   1     0     4     4  0.750      0.750      0.1250    
   1     5   1     0     3     3  0.875      0.875      0.1250    
   1     6   1     0     2     2  1.00       1.00       0.1250    
                          
 THE ANALYSIS HAS COMPLETED SUCCESSFULLY
