1

   Abaqus 6.13-1                                  Date 17-ÎåÔÂ-2015   Time 14:46:32
   For use by  under license from Dassault Systemes or its subsidiary.

                                                                                 
                                                                                 
 STEP    1     INCREMENT     1     STEP TIME    0.00    


                        S T E P       1     S T A T I C   A N A L Y S I S


                                                                                          

     AUTOMATIC TIME CONTROL WITH -
          A SUGGESTED INITIAL TIME INCREMENT OF                 1.00    
          AND A TOTAL TIME PERIOD OF                            1.00    
          THE MINIMUM TIME INCREMENT ALLOWED IS                1.000E-05
          THE MAXIMUM TIME INCREMENT ALLOWED IS                 1.00    

     LINEAR EQUATION SOLVER TYPE         DIRECT SPARSE

 CONVERGENCE TOLERANCE PARAMETERS FOR FORCE    
     CRITERION FOR RESIDUAL FORCE     FOR A NONLINEAR PROBLEM          5.000E-03
     CRITERION FOR DISP.    CORRECTION IN A NONLINEAR PROBLEM          1.000E-02
     INITIAL VALUE OF TIME AVERAGE FORCE                               1.000E-02
     AVERAGE FORCE     IS TIME AVERAGE FORCE    
     ALTERNATE CRIT. FOR RESIDUAL FORCE     FOR A NONLINEAR PROBLEM    2.000E-02
     CRITERION FOR ZERO FORCE     RELATIVE TO TIME AVRG. FORCE         1.000E-05
     CRITERION FOR RESIDUAL FORCE     WHEN THERE IS ZERO FLUX          1.000E-05
     CRITERION FOR DISP.    CORRECTION WHEN THERE IS ZERO FLUX         1.000E-03
     CRITERION FOR RESIDUAL FORCE     FOR A LINEAR INCREMENT           1.000E-08
     FIELD CONVERSION RATIO                                             1.00    
     CRITERION FOR ZERO FORCE     REL. TO TIME AVRG. MAX. FORCE        1.000E-05
     CRITERION FOR ZERO DISP.    RELATIVE TO CHARACTERISTIC LENGTH     1.000E-08

     VOLUMETRIC STRAIN COMPATIBILITY TOLERANCE FOR HYBRID SOLIDS       1.000E-05
     AXIAL STRAIN COMPATIBILITY TOLERANCE FOR HYBRID BEAMS             1.000E-05
     TRANS. SHEAR STRAIN COMPATIBILITY TOLERANCE FOR HYBRID BEAMS      1.000E-05
     SOFT CONTACT CONSTRAINT COMPATIBILITY TOLERANCE FOR P>P0          5.000E-03
     SOFT CONTACT CONSTRAINT COMPATIBILITY TOLERANCE FOR P=0.0         0.100    
     CONTACT FORCE ERROR TOLERANCE FOR CONVERT SDI=YES                 1.00    
     DISPLACEMENT COMPATIBILITY TOLERANCE FOR DCOUP ELEMENTS           1.000E-05
     ROTATION COMPATIBILITY TOLERANCE FOR DCOUP ELEMENTS               1.000E-05

 EQUILIBRIUM WILL BE CHECKED FOR SEVERE DISCONTINUITY ITERATIONS

 TIME INCREMENTATION CONTROL PARAMETERS:
     FIRST EQUILIBRIUM ITERATION FOR CONSECUTIVE DIVERGENCE CHECK              4
     EQUILIBRIUM ITERATION AT WHICH LOG. CONVERGENCE RATE CHECK BEGINS         8
     EQUILIBRIUM ITERATION AFTER WHICH ALTERNATE RESIDUAL IS USED              9
     MAXIMUM EQUILIBRIUM ITERATIONS ALLOWED                                   16
     EQUILIBRIUM ITERATION COUNT FOR CUT-BACK IN NEXT INCREMENT               10
     MAXIMUM EQUILIB. ITERS IN TWO INCREMENTS FOR TIME INCREMENT INCREASE      4
     MAXIMUM ITERATIONS FOR SEVERE DISCONTINUITIES                            50
     MAXIMUM CUT-BACKS ALLOWED IN AN INCREMENT                                 5
     MAXIMUM DISCON. ITERS IN TWO INCREMENTS FOR TIME INCREMENT INCREASE      50
     MAXIMUM CONTACT AUGMENTATIONS FOR *SURFACE BEHAVIOR,AUGMENTED LAGRANGE   50
     CUT-BACK FACTOR AFTER DIVERGENCE                                 0.2500    
     CUT-BACK FACTOR FOR TOO SLOW CONVERGENCE                         0.5000    
     CUT-BACK FACTOR AFTER TOO MANY EQUILIBRIUM ITERATIONS            0.7500    
     CUT-BACK FACTOR AFTER TOO MANY SEVERE DISCONTINUITY ITERATIONS   0.2500    
     CUT-BACK FACTOR AFTER PROBLEMS IN ELEMENT ASSEMBLY               0.2500    
     INCREASE FACTOR AFTER TWO INCREMENTS THAT CONVERGE QUICKLY        1.500    
     MAX. TIME INCREMENT INCREASE FACTOR ALLOWED                       1.500    
     MAX. TIME INCREMENT INCREASE FACTOR ALLOWED (DYNAMICS)            1.250    
     MAX. TIME INCREMENT INCREASE FACTOR ALLOWED (DIFFUSION)           2.000    
     MINIMUM TIME INCREMENT RATIO FOR EXTRAPOLATION TO OCCUR          0.1000    
     MAX. RATIO OF TIME INCREMENT TO STABILITY LIMIT                   1.000    
     FRACTION OF STABILITY LIMIT FOR NEW TIME INCREMENT               0.9500    
     TIME INCREMENT INCREASE FACTOR BEFORE A TIME POINT                1.000    
     GLOBAL STABILIZATION CONTROL IS NOT USED

          PRINT OF INCREMENT NUMBER, TIME, ETC., EVERY    1  INCREMENTS

     THE MAXIMUM NUMBER OF INCREMENTS IN THIS STEP IS                     100

          LARGE DISPLACEMENT THEORY WILL BE USED

     LINEAR EXTRAPOLATION WILL BE USED

     CHARACTERISTIC ELEMENT LENGTH     1.844E-05

     DETAILS REGARDING ACTUAL SOLUTION WAVEFRONT REQUESTED

     DETAILED OUTPUT OF DIAGNOSTICS TO DATABASE REQUESTED

     PRINT OF INCREMENT NUMBER, TIME, ETC., TO THE MESSAGE FILE EVERY     1  INCREMENTS

     EQUATIONS ARE BEING REORDERED TO MINIMIZE WAVEFRONT

     COLLECTING MODEL CONSTRAINT INFORMATION FOR OVERCONSTRAINT CHECKS

     COLLECTING STEP CONSTRAINT INFORMATION FOR OVERCONSTRAINT CHECKS


  INCREMENT     1 STARTS. ATTEMPT NUMBER  1, TIME INCREMENT   1.00    

  NUMBER OF EQUATIONS =     2184     NUMBER OF FLOATING PT. OPERATIONS =  4.99E+07

     CHECK POINT   START OF SOLVER    

     CHECK POINT  END OF SOLVER       

       ELAPSED USER TIME (SEC)      =   0.0000    
       ELAPSED SYSTEM TIME (SEC)    =   0.0000    
       ELAPSED TOTAL CPU TIME (SEC) =   0.0000    
       ELAPSED WALLCLOCK TIME (SEC) =          0
   ELEMENT ARTERY-1.1 IS DISTORTING EXCESSIVELY.
   ELEMENT ARTERY-1.1 IS DISTORTING EXCESSIVELY.
   ELEMENT ARTERY-1.1 IS DISTORTING EXCESSIVELY.
   ELEMENT ARTERY-1.1 IS DISTORTING EXCESSIVELY.
   ELEMENT ARTERY-1.1 IS DISTORTING EXCESSIVELY.
   ELEMENT ARTERY-1.1 IS DISTORTING EXCESSIVELY.
   ELEMENT ARTERY-1.1 IS DISTORTING EXCESSIVELY.
   ELEMENT ARTERY-1.1 IS DISTORTING EXCESSIVELY.
   ELEMENT ARTERY-1.2 IS DISTORTING EXCESSIVELY.
   ELEMENT ARTERY-1.2 IS DISTORTING EXCESSIVELY.
   ELEMENT ARTERY-1.2 IS DISTORTING EXCESSIVELY.
   ELEMENT ARTERY-1.2 IS DISTORTING EXCESSIVELY.
   ELEMENT ARTERY-1.2 IS DISTORTING EXCESSIVELY.
   ELEMENT ARTERY-1.2 IS DISTORTING EXCESSIVELY.
   ELEMENT ARTERY-1.2 IS DISTORTING EXCESSIVELY.
   ELEMENT ARTERY-1.2 IS DISTORTING EXCESSIVELY.
   ELEMENT ARTERY-1.3 IS DISTORTING EXCESSIVELY.
   ELEMENT ARTERY-1.3 IS DISTORTING EXCESSIVELY.
   ELEMENT ARTERY-1.3 IS DISTORTING EXCESSIVELY.
   ELEMENT ARTERY-1.3 IS DISTORTING EXCESSIVELY.
   ELEMENT ARTERY-1.3 IS DISTORTING EXCESSIVELY.
   ELEMENT ARTERY-1.3 IS DISTORTING EXCESSIVELY.
   ELEMENT ARTERY-1.3 IS DISTORTING EXCESSIVELY.
   ELEMENT ARTERY-1.3 IS DISTORTING EXCESSIVELY.
   ELEMENT ARTERY-1.4 IS DISTORTING EXCESSIVELY.
   ELEMENT ARTERY-1.4 IS DISTORTING EXCESSIVELY.
   ELEMENT ARTERY-1.4 IS DISTORTING EXCESSIVELY.
   ELEMENT ARTERY-1.4 IS DISTORTING EXCESSIVELY.
   ELEMENT ARTERY-1.4 IS DISTORTING EXCESSIVELY.
   ELEMENT ARTERY-1.4 IS DISTORTING EXCESSIVELY.
   ELEMENT ARTERY-1.4 IS DISTORTING EXCESSIVELY.
   ELEMENT ARTERY-1.4 IS DISTORTING EXCESSIVELY.
   ELEMENT ARTERY-1.5 IS DISTORTING EXCESSIVELY.
   ELEMENT ARTERY-1.5 IS DISTORTING EXCESSIVELY.
   ELEMENT ARTERY-1.5 IS DISTORTING EXCESSIVELY.
   ELEMENT ARTERY-1.5 IS DISTORTING EXCESSIVELY.
   ELEMENT ARTERY-1.5 IS DISTORTING EXCESSIVELY.
   ELEMENT ARTERY-1.5 IS DISTORTING EXCESSIVELY.
   ELEMENT ARTERY-1.5 IS DISTORTING EXCESSIVELY.
   ELEMENT ARTERY-1.5 IS DISTORTING EXCESSIVELY.
   ELEMENT ARTERY-1.6 IS DISTORTING EXCESSIVELY.
   ELEMENT ARTERY-1.6 IS DISTORTING EXCESSIVELY.
   ELEMENT ARTERY-1.6 IS DISTORTING EXCESSIVELY.
   ELEMENT ARTERY-1.6 IS DISTORTING EXCESSIVELY.
   ELEMENT ARTERY-1.6 IS DISTORTING EXCESSIVELY.
   ELEMENT ARTERY-1.6 IS DISTORTING EXCESSIVELY.
   ELEMENT ARTERY-1.6 IS DISTORTING EXCESSIVELY.
   ELEMENT ARTERY-1.6 IS DISTORTING EXCESSIVELY.
   ELEMENT ARTERY-1.7 IS DISTORTING EXCESSIVELY.
   ELEMENT ARTERY-1.7 IS DISTORTING EXCESSIVELY.
   ELEMENT ARTERY-1.7 IS DISTORTING EXCESSIVELY.
   ELEMENT ARTERY-1.7 IS DISTORTING EXCESSIVELY.
   ELEMENT ARTERY-1.7 IS DISTORTING EXCESSIVELY.
   ELEMENT ARTERY-1.7 IS DISTORTING EXCESSIVELY.
   ELEMENT ARTERY-1.7 IS DISTORTING EXCESSIVELY.
   ELEMENT ARTERY-1.7 IS DISTORTING EXCESSIVELY.
   ELEMENT ARTERY-1.8 IS DISTORTING EXCESSIVELY.
   ELEMENT ARTERY-1.8 IS DISTORTING EXCESSIVELY.
   ELEMENT ARTERY-1.8 IS DISTORTING EXCESSIVELY.
   ELEMENT ARTERY-1.8 IS DISTORTING EXCESSIVELY.
   ELEMENT ARTERY-1.8 IS DISTORTING EXCESSIVELY.
   ELEMENT ARTERY-1.8 IS DISTORTING EXCESSIVELY.
   ELEMENT ARTERY-1.8 IS DISTORTING EXCESSIVELY.
   ELEMENT ARTERY-1.8 IS DISTORTING EXCESSIVELY.
   ELEMENT ARTERY-1.9 IS DISTORTING EXCESSIVELY.
   ELEMENT ARTERY-1.9 IS DISTORTING EXCESSIVELY.
   ELEMENT ARTERY-1.9 IS DISTORTING EXCESSIVELY.
   ELEMENT ARTERY-1.9 IS DISTORTING EXCESSIVELY.
   ELEMENT ARTERY-1.9 IS DISTORTING EXCESSIVELY.
   ELEMENT ARTERY-1.9 IS DISTORTING EXCESSIVELY.
   ELEMENT ARTERY-1.9 IS DISTORTING EXCESSIVELY.
   ELEMENT ARTERY-1.9 IS DISTORTING EXCESSIVELY.
   ELEMENT ARTERY-1.10 IS DISTORTING EXCESSIVELY.
   ELEMENT ARTERY-1.10 IS DISTORTING EXCESSIVELY.
   ELEMENT ARTERY-1.10 IS DISTORTING EXCESSIVELY.
   ELEMENT ARTERY-1.10 IS DISTORTING EXCESSIVELY.
   ELEMENT ARTERY-1.10 IS DISTORTING EXCESSIVELY.
   ELEMENT ARTERY-1.10 IS DISTORTING EXCESSIVELY.
   ELEMENT ARTERY-1.10 IS DISTORTING EXCESSIVELY.
   ELEMENT ARTERY-1.10 IS DISTORTING EXCESSIVELY.
   ELEMENT ARTERY-1.11 IS DISTORTING EXCESSIVELY.
   ELEMENT ARTERY-1.11 IS DISTORTING EXCESSIVELY.
   ELEMENT ARTERY-1.11 IS DISTORTING EXCESSIVELY.
   ELEMENT ARTERY-1.11 IS DISTORTING EXCESSIVELY.
   ELEMENT ARTERY-1.11 IS DISTORTING EXCESSIVELY.
   ELEMENT ARTERY-1.11 IS DISTORTING EXCESSIVELY.
   ELEMENT ARTERY-1.11 IS DISTORTING EXCESSIVELY.
   ELEMENT ARTERY-1.11 IS DISTORTING EXCESSIVELY.
   ELEMENT ARTERY-1.12 IS DISTORTING EXCESSIVELY.
   ELEMENT ARTERY-1.12 IS DISTORTING EXCESSIVELY.
   ELEMENT ARTERY-1.12 IS DISTORTING EXCESSIVELY.
   ELEMENT ARTERY-1.12 IS DISTORTING EXCESSIVELY.
   ELEMENT ARTERY-1.12 IS DISTORTING EXCESSIVELY.
   ELEMENT ARTERY-1.12 IS DISTORTING EXCESSIVELY.
   ELEMENT ARTERY-1.12 IS DISTORTING EXCESSIVELY.
   ELEMENT ARTERY-1.12 IS DISTORTING EXCESSIVELY.
   ELEMENT ARTERY-1.13 IS DISTORTING EXCESSIVELY.
   ELEMENT ARTERY-1.13 IS DISTORTING EXCESSIVELY.
   ELEMENT ARTERY-1.13 IS DISTORTING EXCESSIVELY.
   ELEMENT ARTERY-1.13 IS DISTORTING EXCESSIVELY.
   ELEMENT ARTERY-1.13 IS DISTORTING EXCESSIVELY.
   ELEMENT ARTERY-1.13 IS DISTORTING EXCESSIVELY.
   ELEMENT ARTERY-1.13 IS DISTORTING EXCESSIVELY.
   ELEMENT ARTERY-1.13 IS DISTORTING EXCESSIVELY.
   ELEMENT ARTERY-1.14 IS DISTORTING EXCESSIVELY.
   ELEMENT ARTERY-1.14 IS DISTORTING EXCESSIVELY.
   ELEMENT ARTERY-1.14 IS DISTORTING EXCESSIVELY.
   ELEMENT ARTERY-1.14 IS DISTORTING EXCESSIVELY.
   ELEMENT ARTERY-1.14 IS DISTORTING EXCESSIVELY.
   ELEMENT ARTERY-1.14 IS DISTORTING EXCESSIVELY.
   ELEMENT ARTERY-1.14 IS DISTORTING EXCESSIVELY.
   ELEMENT ARTERY-1.14 IS DISTORTING EXCESSIVELY.
   ELEMENT ARTERY-1.15 IS DISTORTING EXCESSIVELY.
   ELEMENT ARTERY-1.15 IS DISTORTING EXCESSIVELY.
   ELEMENT ARTERY-1.15 IS DISTORTING EXCESSIVELY.
   ELEMENT ARTERY-1.15 IS DISTORTING EXCESSIVELY.
   ELEMENT ARTERY-1.15 IS DISTORTING EXCESSIVELY.
   ELEMENT ARTERY-1.15 IS DISTORTING EXCESSIVELY.
   ELEMENT ARTERY-1.15 IS DISTORTING EXCESSIVELY.
   ELEMENT ARTERY-1.15 IS DISTORTING EXCESSIVELY.
   ELEMENT ARTERY-1.16 IS DISTORTING EXCESSIVELY.
   ELEMENT ARTERY-1.16 IS DISTORTING EXCESSIVELY.
   ELEMENT ARTERY-1.16 IS DISTORTING EXCESSIVELY.
   ELEMENT ARTERY-1.16 IS DISTORTING EXCESSIVELY.
   ELEMENT ARTERY-1.16 IS DISTORTING EXCESSIVELY.
   ELEMENT ARTERY-1.16 IS DISTORTING EXCESSIVELY.
   ELEMENT ARTERY-1.16 IS DISTORTING EXCESSIVELY.
   ELEMENT ARTERY-1.16 IS DISTORTING EXCESSIVELY.
   ELEMENT ARTERY-1.17 IS DISTORTING EXCESSIVELY.
   ELEMENT ARTERY-1.17 IS DISTORTING EXCESSIVELY.
   ELEMENT ARTERY-1.17 IS DISTORTING EXCESSIVELY.
   ELEMENT ARTERY-1.17 IS DISTORTING EXCESSIVELY.
   ELEMENT ARTERY-1.17 IS DISTORTING EXCESSIVELY.
   ELEMENT ARTERY-1.17 IS DISTORTING EXCESSIVELY.
   ELEMENT ARTERY-1.17 IS DISTORTING EXCESSIVELY.
   ELEMENT ARTERY-1.17 IS DISTORTING EXCESSIVELY.
   ELEMENT ARTERY-1.18 IS DISTORTING EXCESSIVELY.
   ELEMENT ARTERY-1.18 IS DISTORTING EXCESSIVELY.
   ELEMENT ARTERY-1.18 IS DISTORTING EXCESSIVELY.
   ELEMENT ARTERY-1.18 IS DISTORTING EXCESSIVELY.
   ELEMENT ARTERY-1.18 IS DISTORTING EXCESSIVELY.
   ELEMENT ARTERY-1.18 IS DISTORTING EXCESSIVELY.
   ELEMENT ARTERY-1.18 IS DISTORTING EXCESSIVELY.
   ELEMENT ARTERY-1.18 IS DISTORTING EXCESSIVELY.
   ELEMENT ARTERY-1.19 IS DISTORTING EXCESSIVELY.
   ELEMENT ARTERY-1.19 IS DISTORTING EXCESSIVELY.
   ELEMENT ARTERY-1.19 IS DISTORTING EXCESSIVELY.
   ELEMENT ARTERY-1.19 IS DISTORTING EXCESSIVELY.
   ELEMENT ARTERY-1.19 IS DISTORTING EXCESSIVELY.
   ELEMENT ARTERY-1.19 IS DISTORTING EXCESSIVELY.
   ELEMENT ARTERY-1.19 IS DISTORTING EXCESSIVELY.
   ELEMENT ARTERY-1.19 IS DISTORTING EXCESSIVELY.
   ELEMENT ARTERY-1.20 IS DISTORTING EXCESSIVELY.
   ELEMENT ARTERY-1.20 IS DISTORTING EXCESSIVELY.
   ELEMENT ARTERY-1.20 IS DISTORTING EXCESSIVELY.
   ELEMENT ARTERY-1.20 IS DISTORTING EXCESSIVELY.
   ELEMENT ARTERY-1.20 IS DISTORTING EXCESSIVELY.
   ELEMENT ARTERY-1.20 IS DISTORTING EXCESSIVELY.
   ELEMENT ARTERY-1.20 IS DISTORTING EXCESSIVELY.
   ELEMENT ARTERY-1.20 IS DISTORTING EXCESSIVELY.
   ELEMENT ARTERY-1.21 IS DISTORTING EXCESSIVELY.
   ELEMENT ARTERY-1.21 IS DISTORTING EXCESSIVELY.
   ELEMENT ARTERY-1.21 IS DISTORTING EXCESSIVELY.
   ELEMENT ARTERY-1.21 IS DISTORTING EXCESSIVELY.
   ELEMENT ARTERY-1.21 IS DISTORTING EXCESSIVELY.
   ELEMENT ARTERY-1.21 IS DISTORTING EXCESSIVELY.
   ELEMENT ARTERY-1.21 IS DISTORTING EXCESSIVELY.
   ELEMENT ARTERY-1.21 IS DISTORTING EXCESSIVELY.
   ELEMENT ARTERY-1.22 IS DISTORTING EXCESSIVELY.
   ELEMENT ARTERY-1.22 IS DISTORTING EXCESSIVELY.
   ELEMENT ARTERY-1.22 IS DISTORTING EXCESSIVELY.
   ELEMENT ARTERY-1.22 IS DISTORTING EXCESSIVELY.
   ELEMENT ARTERY-1.22 IS DISTORTING EXCESSIVELY.
   ELEMENT ARTERY-1.22 IS DISTORTING EXCESSIVELY.
   ELEMENT ARTERY-1.22 IS DISTORTING EXCESSIVELY.
   ELEMENT ARTERY-1.22 IS DISTORTING EXCESSIVELY.
   ELEMENT ARTERY-1.23 IS DISTORTING EXCESSIVELY.
   ELEMENT ARTERY-1.23 IS DISTORTING EXCESSIVELY.
   ELEMENT ARTERY-1.23 IS DISTORTING EXCESSIVELY.
   ELEMENT ARTERY-1.23 IS DISTORTING EXCESSIVELY.
   ELEMENT ARTERY-1.23 IS DISTORTING EXCESSIVELY.
   ELEMENT ARTERY-1.23 IS DISTORTING EXCESSIVELY.
   ELEMENT ARTERY-1.23 IS DISTORTING EXCESSIVELY.
   ELEMENT ARTERY-1.23 IS DISTORTING EXCESSIVELY.
   ELEMENT ARTERY-1.24 IS DISTORTING EXCESSIVELY.
   ELEMENT ARTERY-1.24 IS DISTORTING EXCESSIVELY.
   ELEMENT ARTERY-1.24 IS DISTORTING EXCESSIVELY.
   ELEMENT ARTERY-1.24 IS DISTORTING EXCESSIVELY.
   ELEMENT ARTERY-1.24 IS DISTORTING EXCESSIVELY.
   ELEMENT ARTERY-1.24 IS DISTORTING EXCESSIVELY.
   ELEMENT ARTERY-1.24 IS DISTORTING EXCESSIVELY.
   ELEMENT ARTERY-1.24 IS DISTORTING EXCESSIVELY.
   ELEMENT ARTERY-1.25 IS DISTORTING EXCESSIVELY.
   ELEMENT ARTERY-1.25 IS DISTORTING EXCESSIVELY.
   ELEMENT ARTERY-1.25 IS DISTORTING EXCESSIVELY.
   ELEMENT ARTERY-1.25 IS DISTORTING EXCESSIVELY.
   ELEMENT ARTERY-1.25 IS DISTORTING EXCESSIVELY.
   ELEMENT ARTERY-1.25 IS DISTORTING EXCESSIVELY.
   ELEMENT ARTERY-1.25 IS DISTORTING EXCESSIVELY.
   ELEMENT ARTERY-1.25 IS DISTORTING EXCESSIVELY.
   ELEMENT ARTERY-1.26 IS DISTORTING EXCESSIVELY.
   ELEMENT ARTERY-1.26 IS DISTORTING EXCESSIVELY.
   ELEMENT ARTERY-1.26 IS DISTORTING EXCESSIVELY.
   ELEMENT ARTERY-1.26 IS DISTORTING EXCESSIVELY.
   ELEMENT ARTERY-1.26 IS DISTORTING EXCESSIVELY.
   ELEMENT ARTERY-1.26 IS DISTORTING EXCESSIVELY.
   ELEMENT ARTERY-1.26 IS DISTORTING EXCESSIVELY.
   ELEMENT ARTERY-1.26 IS DISTORTING EXCESSIVELY.
   ELEMENT ARTERY-1.27 IS DISTORTING EXCESSIVELY.
   ELEMENT ARTERY-1.27 IS DISTORTING EXCESSIVELY.
   ELEMENT ARTERY-1.27 IS DISTORTING EXCESSIVELY.
   ELEMENT ARTERY-1.27 IS DISTORTING EXCESSIVELY.
   ELEMENT ARTERY-1.27 IS DISTORTING EXCESSIVELY.
   ELEMENT ARTERY-1.27 IS DISTORTING EXCESSIVELY.
   ELEMENT ARTERY-1.27 IS DISTORTING EXCESSIVELY.
   ELEMENT ARTERY-1.27 IS DISTORTING EXCESSIVELY.
   ELEMENT ARTERY-1.28 IS DISTORTING EXCESSIVELY.
   ELEMENT ARTERY-1.28 IS DISTORTING EXCESSIVELY.
   ELEMENT ARTERY-1.28 IS DISTORTING EXCESSIVELY.
   ELEMENT ARTERY-1.28 IS DISTORTING EXCESSIVELY.
   ELEMENT ARTERY-1.28 IS DISTORTING EXCESSIVELY.
   ELEMENT ARTERY-1.28 IS DISTORTING EXCESSIVELY.
   ELEMENT ARTERY-1.28 IS DISTORTING EXCESSIVELY.
   ELEMENT ARTERY-1.28 IS DISTORTING EXCESSIVELY.
   ELEMENT ARTERY-1.29 IS DISTORTING EXCESSIVELY.
   ELEMENT ARTERY-1.29 IS DISTORTING EXCESSIVELY.
   ELEMENT ARTERY-1.29 IS DISTORTING EXCESSIVELY.
   ELEMENT ARTERY-1.29 IS DISTORTING EXCESSIVELY.
   ELEMENT ARTERY-1.29 IS DISTORTING EXCESSIVELY.
   ELEMENT ARTERY-1.29 IS DISTORTING EXCESSIVELY.
   ELEMENT ARTERY-1.29 IS DISTORTING EXCESSIVELY.
   ELEMENT ARTERY-1.29 IS DISTORTING EXCESSIVELY.
   ELEMENT ARTERY-1.30 IS DISTORTING EXCESSIVELY.
   ELEMENT ARTERY-1.30 IS DISTORTING EXCESSIVELY.
   ELEMENT ARTERY-1.30 IS DISTORTING EXCESSIVELY.
   ELEMENT ARTERY-1.30 IS DISTORTING EXCESSIVELY.
   ELEMENT ARTERY-1.30 IS DISTORTING EXCESSIVELY.
   ELEMENT ARTERY-1.30 IS DISTORTING EXCESSIVELY.
   ELEMENT ARTERY-1.30 IS DISTORTING EXCESSIVELY.
   ELEMENT ARTERY-1.30 IS DISTORTING EXCESSIVELY.
   ELEMENT ARTERY-1.31 IS DISTORTING EXCESSIVELY.
   ELEMENT ARTERY-1.31 IS DISTORTING EXCESSIVELY.
   ELEMENT ARTERY-1.31 IS DISTORTING EXCESSIVELY.
   ELEMENT ARTERY-1.31 IS DISTORTING EXCESSIVELY.
   ELEMENT ARTERY-1.31 IS DISTORTING EXCESSIVELY.
   ELEMENT ARTERY-1.31 IS DISTORTING EXCESSIVELY.
   ELEMENT ARTERY-1.31 IS DISTORTING EXCESSIVELY.
   ELEMENT ARTERY-1.31 IS DISTORTING EXCESSIVELY.
   ELEMENT ARTERY-1.32 IS DISTORTING EXCESSIVELY.
   ELEMENT ARTERY-1.32 IS DISTORTING EXCESSIVELY.
   ELEMENT ARTERY-1.32 IS DISTORTING EXCESSIVELY.
   ELEMENT ARTERY-1.32 IS DISTORTING EXCESSIVELY.
   ELEMENT ARTERY-1.32 IS DISTORTING EXCESSIVELY.
   ELEMENT ARTERY-1.32 IS DISTORTING EXCESSIVELY.
   ELEMENT ARTERY-1.32 IS DISTORTING EXCESSIVELY.
   ELEMENT ARTERY-1.32 IS DISTORTING EXCESSIVELY.
   ELEMENT ARTERY-1.33 IS DISTORTING EXCESSIVELY.
   ELEMENT ARTERY-1.33 IS DISTORTING EXCESSIVELY.
   ELEMENT ARTERY-1.33 IS DISTORTING EXCESSIVELY.
   ELEMENT ARTERY-1.33 IS DISTORTING EXCESSIVELY.
   ELEMENT ARTERY-1.33 IS DISTORTING EXCESSIVELY.
   ELEMENT ARTERY-1.33 IS DISTORTING EXCESSIVELY.
   ELEMENT ARTERY-1.33 IS DISTORTING EXCESSIVELY.
   ELEMENT ARTERY-1.33 IS DISTORTING EXCESSIVELY.
   ELEMENT ARTERY-1.34 IS DISTORTING EXCESSIVELY.
   ELEMENT ARTERY-1.34 IS DISTORTING EXCESSIVELY.
   ELEMENT ARTERY-1.34 IS DISTORTING EXCESSIVELY.
   ELEMENT ARTERY-1.34 IS DISTORTING EXCESSIVELY.
   ELEMENT ARTERY-1.34 IS DISTORTING EXCESSIVELY.
   ELEMENT ARTERY-1.34 IS DISTORTING EXCESSIVELY.
   ELEMENT ARTERY-1.34 IS DISTORTING EXCESSIVELY.
   ELEMENT ARTERY-1.34 IS DISTORTING EXCESSIVELY.
   ELEMENT ARTERY-1.35 IS DISTORTING EXCESSIVELY.
   ELEMENT ARTERY-1.35 IS DISTORTING EXCESSIVELY.
   ELEMENT ARTERY-1.35 IS DISTORTING EXCESSIVELY.
   ELEMENT ARTERY-1.35 IS DISTORTING EXCESSIVELY.
   ELEMENT ARTERY-1.35 IS DISTORTING EXCESSIVELY.
   ELEMENT ARTERY-1.35 IS DISTORTING EXCESSIVELY.
   ELEMENT ARTERY-1.35 IS DISTORTING EXCESSIVELY.
   ELEMENT ARTERY-1.35 IS DISTORTING EXCESSIVELY.
   ELEMENT ARTERY-1.36 IS DISTORTING EXCESSIVELY.
   ELEMENT ARTERY-1.36 IS DISTORTING EXCESSIVELY.
   ELEMENT ARTERY-1.36 IS DISTORTING EXCESSIVELY.
   ELEMENT ARTERY-1.36 IS DISTORTING EXCESSIVELY.
   ELEMENT ARTERY-1.36 IS DISTORTING EXCESSIVELY.
   ELEMENT ARTERY-1.36 IS DISTORTING EXCESSIVELY.
   ELEMENT ARTERY-1.36 IS DISTORTING EXCESSIVELY.
   ELEMENT ARTERY-1.36 IS DISTORTING EXCESSIVELY.
   ELEMENT ARTERY-1.37 IS DISTORTING EXCESSIVELY.
   ELEMENT ARTERY-1.37 IS DISTORTING EXCESSIVELY.
   ELEMENT ARTERY-1.37 IS DISTORTING EXCESSIVELY.
   ELEMENT ARTERY-1.37 IS DISTORTING EXCESSIVELY.
   ELEMENT ARTERY-1.37 IS DISTORTING EXCESSIVELY.
   ELEMENT ARTERY-1.37 IS DISTORTING EXCESSIVELY.
   ELEMENT ARTERY-1.37 IS DISTORTING EXCESSIVELY.
   ELEMENT ARTERY-1.37 IS DISTORTING EXCESSIVELY.
   ELEMENT ARTERY-1.38 IS DISTORTING EXCESSIVELY.
   ELEMENT ARTERY-1.38 IS DISTORTING EXCESSIVELY.
   ELEMENT ARTERY-1.38 IS DISTORTING EXCESSIVELY.
   ELEMENT ARTERY-1.38 IS DISTORTING EXCESSIVELY.
   ELEMENT ARTERY-1.38 IS DISTORTING EXCESSIVELY.
   ELEMENT ARTERY-1.38 IS DISTORTING EXCESSIVELY.
   ELEMENT ARTERY-1.38 IS DISTORTING EXCESSIVELY.
   ELEMENT ARTERY-1.38 IS DISTORTING EXCESSIVELY.
   ELEMENT ARTERY-1.39 IS DISTORTING EXCESSIVELY.
   ELEMENT ARTERY-1.39 IS DISTORTING EXCESSIVELY.
   ELEMENT ARTERY-1.39 IS DISTORTING EXCESSIVELY.
   ELEMENT ARTERY-1.39 IS DISTORTING EXCESSIVELY.
   ELEMENT ARTERY-1.39 IS DISTORTING EXCESSIVELY.
   ELEMENT ARTERY-1.39 IS DISTORTING EXCESSIVELY.
   ELEMENT ARTERY-1.39 IS DISTORTING EXCESSIVELY.
   ELEMENT ARTERY-1.39 IS DISTORTING EXCESSIVELY.
   ELEMENT ARTERY-1.40 IS DISTORTING EXCESSIVELY.
   ELEMENT ARTERY-1.40 IS DISTORTING EXCESSIVELY.
   ELEMENT ARTERY-1.40 IS DISTORTING EXCESSIVELY.
   ELEMENT ARTERY-1.40 IS DISTORTING EXCESSIVELY.
   ELEMENT ARTERY-1.40 IS DISTORTING EXCESSIVELY.
   ELEMENT ARTERY-1.40 IS DISTORTING EXCESSIVELY.
   ELEMENT ARTERY-1.40 IS DISTORTING EXCESSIVELY.
   ELEMENT ARTERY-1.40 IS DISTORTING EXCESSIVELY.
   ELEMENT ARTERY-1.41 IS DISTORTING EXCESSIVELY.
   ELEMENT ARTERY-1.41 IS DISTORTING EXCESSIVELY.
   ELEMENT ARTERY-1.41 IS DISTORTING EXCESSIVELY.
   ELEMENT ARTERY-1.41 IS DISTORTING EXCESSIVELY.
   ELEMENT ARTERY-1.41 IS DISTORTING EXCESSIVELY.
   ELEMENT ARTERY-1.41 IS DISTORTING EXCESSIVELY.
   ELEMENT ARTERY-1.41 IS DISTORTING EXCESSIVELY.
   ELEMENT ARTERY-1.41 IS DISTORTING EXCESSIVELY.
   ELEMENT ARTERY-1.42 IS DISTORTING EXCESSIVELY.
   ELEMENT ARTERY-1.42 IS DISTORTING EXCESSIVELY.
   ELEMENT ARTERY-1.42 IS DISTORTING EXCESSIVELY.
   ELEMENT ARTERY-1.42 IS DISTORTING EXCESSIVELY.
   ELEMENT ARTERY-1.42 IS DISTORTING EXCESSIVELY.
   ELEMENT ARTERY-1.42 IS DISTORTING EXCESSIVELY.
   ELEMENT ARTERY-1.42 IS DISTORTING EXCESSIVELY.
   ELEMENT ARTERY-1.42 IS DISTORTING EXCESSIVELY.
   ELEMENT ARTERY-1.43 IS DISTORTING EXCESSIVELY.
   ELEMENT ARTERY-1.43 IS DISTORTING EXCESSIVELY.
   ELEMENT ARTERY-1.43 IS DISTORTING EXCESSIVELY.
   ELEMENT ARTERY-1.43 IS DISTORTING EXCESSIVELY.
   ELEMENT ARTERY-1.43 IS DISTORTING EXCESSIVELY.
   ELEMENT ARTERY-1.43 IS DISTORTING EXCESSIVELY.
   ELEMENT ARTERY-1.43 IS DISTORTING EXCESSIVELY.
   ELEMENT ARTERY-1.43 IS DISTORTING EXCESSIVELY.
   ELEMENT ARTERY-1.44 IS DISTORTING EXCESSIVELY.
   ELEMENT ARTERY-1.44 IS DISTORTING EXCESSIVELY.
   ELEMENT ARTERY-1.44 IS DISTORTING EXCESSIVELY.
   ELEMENT ARTERY-1.44 IS DISTORTING EXCESSIVELY.
   ELEMENT ARTERY-1.44 IS DISTORTING EXCESSIVELY.
   ELEMENT ARTERY-1.44 IS DISTORTING EXCESSIVELY.
   ELEMENT ARTERY-1.44 IS DISTORTING EXCESSIVELY.
   ELEMENT ARTERY-1.44 IS DISTORTING EXCESSIVELY.
   ELEMENT ARTERY-1.45 IS DISTORTING EXCESSIVELY.
   ELEMENT ARTERY-1.45 IS DISTORTING EXCESSIVELY.
   ELEMENT ARTERY-1.45 IS DISTORTING EXCESSIVELY.
   ELEMENT ARTERY-1.45 IS DISTORTING EXCESSIVELY.
   ELEMENT ARTERY-1.45 IS DISTORTING EXCESSIVELY.
   ELEMENT ARTERY-1.45 IS DISTORTING EXCESSIVELY.
   ELEMENT ARTERY-1.45 IS DISTORTING EXCESSIVELY.
   ELEMENT ARTERY-1.45 IS DISTORTING EXCESSIVELY.
   ELEMENT ARTERY-1.46 IS DISTORTING EXCESSIVELY.
   ELEMENT ARTERY-1.46 IS DISTORTING EXCESSIVELY.
   ELEMENT ARTERY-1.46 IS DISTORTING EXCESSIVELY.
   ELEMENT ARTERY-1.46 IS DISTORTING EXCESSIVELY.
   ELEMENT ARTERY-1.46 IS DISTORTING EXCESSIVELY.
   ELEMENT ARTERY-1.46 IS DISTORTING EXCESSIVELY.
   ELEMENT ARTERY-1.46 IS DISTORTING EXCESSIVELY.
   ELEMENT ARTERY-1.46 IS DISTORTING EXCESSIVELY.
   ELEMENT ARTERY-1.47 IS DISTORTING EXCESSIVELY.
   ELEMENT ARTERY-1.47 IS DISTORTING EXCESSIVELY.
   ELEMENT ARTERY-1.47 IS DISTORTING EXCESSIVELY.
   ELEMENT ARTERY-1.47 IS DISTORTING EXCESSIVELY.
   ELEMENT ARTERY-1.47 IS DISTORTING EXCESSIVELY.
   ELEMENT ARTERY-1.47 IS DISTORTING EXCESSIVELY.
   ELEMENT ARTERY-1.47 IS DISTORTING EXCESSIVELY.
   ELEMENT ARTERY-1.47 IS DISTORTING EXCESSIVELY.
   ELEMENT ARTERY-1.48 IS DISTORTING EXCESSIVELY.
   ELEMENT ARTERY-1.48 IS DISTORTING EXCESSIVELY.
   ELEMENT ARTERY-1.48 IS DISTORTING EXCESSIVELY.
   ELEMENT ARTERY-1.48 IS DISTORTING EXCESSIVELY.
   ELEMENT ARTERY-1.48 IS DISTORTING EXCESSIVELY.
   ELEMENT ARTERY-1.48 IS DISTORTING EXCESSIVELY.
   ELEMENT ARTERY-1.48 IS DISTORTING EXCESSIVELY.
   ELEMENT ARTERY-1.48 IS DISTORTING EXCESSIVELY.
   ELEMENT ARTERY-1.49 IS DISTORTING EXCESSIVELY.
   ELEMENT ARTERY-1.49 IS DISTORTING EXCESSIVELY.
   ELEMENT ARTERY-1.49 IS DISTORTING EXCESSIVELY.
   ELEMENT ARTERY-1.49 IS DISTORTING EXCESSIVELY.
   ELEMENT ARTERY-1.49 IS DISTORTING EXCESSIVELY.
   ELEMENT ARTERY-1.49 IS DISTORTING EXCESSIVELY.
   ELEMENT ARTERY-1.49 IS DISTORTING EXCESSIVELY.
   ELEMENT ARTERY-1.49 IS DISTORTING EXCESSIVELY.
   ELEMENT ARTERY-1.50 IS DISTORTING EXCESSIVELY.
   ELEMENT ARTERY-1.50 IS DISTORTING EXCESSIVELY.
   ELEMENT ARTERY-1.50 IS DISTORTING EXCESSIVELY.
   ELEMENT ARTERY-1.50 IS DISTORTING EXCESSIVELY.
   ELEMENT ARTERY-1.50 IS DISTORTING EXCESSIVELY.
   ELEMENT ARTERY-1.50 IS DISTORTING EXCESSIVELY.
   ELEMENT ARTERY-1.50 IS DISTORTING EXCESSIVELY.
   ELEMENT ARTERY-1.50 IS DISTORTING EXCESSIVELY.
   ELEMENT ARTERY-1.51 IS DISTORTING EXCESSIVELY.
   ELEMENT ARTERY-1.51 IS DISTORTING EXCESSIVELY.
   ELEMENT ARTERY-1.51 IS DISTORTING EXCESSIVELY.
   ELEMENT ARTERY-1.51 IS DISTORTING EXCESSIVELY.
   ELEMENT ARTERY-1.51 IS DISTORTING EXCESSIVELY.
   ELEMENT ARTERY-1.51 IS DISTORTING EXCESSIVELY.
   ELEMENT ARTERY-1.51 IS DISTORTING EXCESSIVELY.
   ELEMENT ARTERY-1.51 IS DISTORTING EXCESSIVELY.
   ELEMENT ARTERY-1.52 IS DISTORTING EXCESSIVELY.
   ELEMENT ARTERY-1.52 IS DISTORTING EXCESSIVELY.
   ELEMENT ARTERY-1.52 IS DISTORTING EXCESSIVELY.
   ELEMENT ARTERY-1.52 IS DISTORTING EXCESSIVELY.
   ELEMENT ARTERY-1.52 IS DISTORTING EXCESSIVELY.
   ELEMENT ARTERY-1.52 IS DISTORTING EXCESSIVELY.
   ELEMENT ARTERY-1.52 IS DISTORTING EXCESSIVELY.
   ELEMENT ARTERY-1.52 IS DISTORTING EXCESSIVELY.
   ELEMENT ARTERY-1.53 IS DISTORTING EXCESSIVELY.
   ELEMENT ARTERY-1.53 IS DISTORTING EXCESSIVELY.
   ELEMENT ARTERY-1.53 IS DISTORTING EXCESSIVELY.
   ELEMENT ARTERY-1.53 IS DISTORTING EXCESSIVELY.
   ELEMENT ARTERY-1.53 IS DISTORTING EXCESSIVELY.
   ELEMENT ARTERY-1.53 IS DISTORTING EXCESSIVELY.
   ELEMENT ARTERY-1.53 IS DISTORTING EXCESSIVELY.
   ELEMENT ARTERY-1.53 IS DISTORTING EXCESSIVELY.
   ELEMENT ARTERY-1.54 IS DISTORTING EXCESSIVELY.
   ELEMENT ARTERY-1.54 IS DISTORTING EXCESSIVELY.
   ELEMENT ARTERY-1.54 IS DISTORTING EXCESSIVELY.
   ELEMENT ARTERY-1.54 IS DISTORTING EXCESSIVELY.
   ELEMENT ARTERY-1.54 IS DISTORTING EXCESSIVELY.
   ELEMENT ARTERY-1.54 IS DISTORTING EXCESSIVELY.
   ELEMENT ARTERY-1.54 IS DISTORTING EXCESSIVELY.
   ELEMENT ARTERY-1.54 IS DISTORTING EXCESSIVELY.
   ELEMENT ARTERY-1.55 IS DISTORTING EXCESSIVELY.
   ELEMENT ARTERY-1.55 IS DISTORTING EXCESSIVELY.
   ELEMENT ARTERY-1.55 IS DISTORTING EXCESSIVELY.
   ELEMENT ARTERY-1.55 IS DISTORTING EXCESSIVELY.
   ELEMENT ARTERY-1.55 IS DISTORTING EXCESSIVELY.
   ELEMENT ARTERY-1.55 IS DISTORTING EXCESSIVELY.
   ELEMENT ARTERY-1.55 IS DISTORTING EXCESSIVELY.
   ELEMENT ARTERY-1.55 IS DISTORTING EXCESSIVELY.
   ELEMENT ARTERY-1.56 IS DISTORTING EXCESSIVELY.
   ELEMENT ARTERY-1.56 IS DISTORTING EXCESSIVELY.
   ELEMENT ARTERY-1.56 IS DISTORTING EXCESSIVELY.
   ELEMENT ARTERY-1.56 IS DISTORTING EXCESSIVELY.
   ELEMENT ARTERY-1.56 IS DISTORTING EXCESSIVELY.
   ELEMENT ARTERY-1.56 IS DISTORTING EXCESSIVELY.
   ELEMENT ARTERY-1.56 IS DISTORTING EXCESSIVELY.
   ELEMENT ARTERY-1.56 IS DISTORTING EXCESSIVELY.
   ELEMENT ARTERY-1.57 IS DISTORTING EXCESSIVELY.
   ELEMENT ARTERY-1.57 IS DISTORTING EXCESSIVELY.
   ELEMENT ARTERY-1.57 IS DISTORTING EXCESSIVELY.
   ELEMENT ARTERY-1.57 IS DISTORTING EXCESSIVELY.
   ELEMENT ARTERY-1.57 IS DISTORTING EXCESSIVELY.
   ELEMENT ARTERY-1.57 IS DISTORTING EXCESSIVELY.
   ELEMENT ARTERY-1.57 IS DISTORTING EXCESSIVELY.
   ELEMENT ARTERY-1.57 IS DISTORTING EXCESSIVELY.
   ELEMENT ARTERY-1.58 IS DISTORTING EXCESSIVELY.
   ELEMENT ARTERY-1.58 IS DISTORTING EXCESSIVELY.
   ELEMENT ARTERY-1.58 IS DISTORTING EXCESSIVELY.
   ELEMENT ARTERY-1.58 IS DISTORTING EXCESSIVELY.
   ELEMENT ARTERY-1.58 IS DISTORTING EXCESSIVELY.
   ELEMENT ARTERY-1.58 IS DISTORTING EXCESSIVELY.
   ELEMENT ARTERY-1.58 IS DISTORTING EXCESSIVELY.
   ELEMENT ARTERY-1.58 IS DISTORTING EXCESSIVELY.
   ELEMENT ARTERY-1.59 IS DISTORTING EXCESSIVELY.
   ELEMENT ARTERY-1.59 IS DISTORTING EXCESSIVELY.
   ELEMENT ARTERY-1.59 IS DISTORTING EXCESSIVELY.
   ELEMENT ARTERY-1.59 IS DISTORTING EXCESSIVELY.
   ELEMENT ARTERY-1.59 IS DISTORTING EXCESSIVELY.
   ELEMENT ARTERY-1.59 IS DISTORTING EXCESSIVELY.
   ELEMENT ARTERY-1.59 IS DISTORTING EXCESSIVELY.
   ELEMENT ARTERY-1.59 IS DISTORTING EXCESSIVELY.
   ELEMENT ARTERY-1.60 IS DISTORTING EXCESSIVELY.
   ELEMENT ARTERY-1.60 IS DISTORTING EXCESSIVELY.
   ELEMENT ARTERY-1.60 IS DISTORTING EXCESSIVELY.
   ELEMENT ARTERY-1.60 IS DISTORTING EXCESSIVELY.
   ELEMENT ARTERY-1.60 IS DISTORTING EXCESSIVELY.
   ELEMENT ARTERY-1.60 IS DISTORTING EXCESSIVELY.
   ELEMENT ARTERY-1.60 IS DISTORTING EXCESSIVELY.
   ELEMENT ARTERY-1.60 IS DISTORTING EXCESSIVELY.
   ELEMENT ARTERY-1.61 IS DISTORTING EXCESSIVELY.
   ELEMENT ARTERY-1.61 IS DISTORTING EXCESSIVELY.
   ELEMENT ARTERY-1.61 IS DISTORTING EXCESSIVELY.
   ELEMENT ARTERY-1.61 IS DISTORTING EXCESSIVELY.
   ELEMENT ARTERY-1.61 IS DISTORTING EXCESSIVELY.
   ELEMENT ARTERY-1.61 IS DISTORTING EXCESSIVELY.
   ELEMENT ARTERY-1.61 IS DISTORTING EXCESSIVELY.
   ELEMENT ARTERY-1.61 IS DISTORTING EXCESSIVELY.
   ELEMENT ARTERY-1.62 IS DISTORTING EXCESSIVELY.
   ELEMENT ARTERY-1.62 IS DISTORTING EXCESSIVELY.
   ELEMENT ARTERY-1.62 IS DISTORTING EXCESSIVELY.
   ELEMENT ARTERY-1.62 IS DISTORTING EXCESSIVELY.
   ELEMENT ARTERY-1.62 IS DISTORTING EXCESSIVELY.
   ELEMENT ARTERY-1.62 IS DISTORTING EXCESSIVELY.
   ELEMENT ARTERY-1.62 IS DISTORTING EXCESSIVELY.
   ELEMENT ARTERY-1.62 IS DISTORTING EXCESSIVELY.
   ELEMENT ARTERY-1.63 IS DISTORTING EXCESSIVELY.
   ELEMENT ARTERY-1.63 IS DISTORTING EXCESSIVELY.
   ELEMENT ARTERY-1.63 IS DISTORTING EXCESSIVELY.
   ELEMENT ARTERY-1.63 IS DISTORTING EXCESSIVELY.
   ELEMENT ARTERY-1.63 IS DISTORTING EXCESSIVELY.
   ELEMENT ARTERY-1.63 IS DISTORTING EXCESSIVELY.
   ELEMENT ARTERY-1.63 IS DISTORTING EXCESSIVELY.
   ELEMENT ARTERY-1.63 IS DISTORTING EXCESSIVELY.
   ELEMENT ARTERY-1.64 IS DISTORTING EXCESSIVELY.
   ELEMENT ARTERY-1.64 IS DISTORTING EXCESSIVELY.
   ELEMENT ARTERY-1.64 IS DISTORTING EXCESSIVELY.
   ELEMENT ARTERY-1.64 IS DISTORTING EXCESSIVELY.
   ELEMENT ARTERY-1.64 IS DISTORTING EXCESSIVELY.
   ELEMENT ARTERY-1.64 IS DISTORTING EXCESSIVELY.
   ELEMENT ARTERY-1.64 IS DISTORTING EXCESSIVELY.
   ELEMENT ARTERY-1.64 IS DISTORTING EXCESSIVELY.
   ELEMENT ARTERY-1.65 IS DISTORTING EXCESSIVELY.
   ELEMENT ARTERY-1.65 IS DISTORTING EXCESSIVELY.
   ELEMENT ARTERY-1.65 IS DISTORTING EXCESSIVELY.
   ELEMENT ARTERY-1.65 IS DISTORTING EXCESSIVELY.
   ELEMENT ARTERY-1.65 IS DISTORTING EXCESSIVELY.
   ELEMENT ARTERY-1.65 IS DISTORTING EXCESSIVELY.
   ELEMENT ARTERY-1.65 IS DISTORTING EXCESSIVELY.
   ELEMENT ARTERY-1.65 IS DISTORTING EXCESSIVELY.
   ELEMENT ARTERY-1.66 IS DISTORTING EXCESSIVELY.
   ELEMENT ARTERY-1.66 IS DISTORTING EXCESSIVELY.
   ELEMENT ARTERY-1.66 IS DISTORTING EXCESSIVELY.
   ELEMENT ARTERY-1.66 IS DISTORTING EXCESSIVELY.
   ELEMENT ARTERY-1.66 IS DISTORTING EXCESSIVELY.
   ELEMENT ARTERY-1.66 IS DISTORTING EXCESSIVELY.
   ELEMENT ARTERY-1.66 IS DISTORTING EXCESSIVELY.
   ELEMENT ARTERY-1.66 IS DISTORTING EXCESSIVELY.
   ELEMENT ARTERY-1.67 IS DISTORTING EXCESSIVELY.
   ELEMENT ARTERY-1.67 IS DISTORTING EXCESSIVELY.
   ELEMENT ARTERY-1.67 IS DISTORTING EXCESSIVELY.
   ELEMENT ARTERY-1.67 IS DISTORTING EXCESSIVELY.
   ELEMENT ARTERY-1.67 IS DISTORTING EXCESSIVELY.
   ELEMENT ARTERY-1.67 IS DISTORTING EXCESSIVELY.
   ELEMENT ARTERY-1.67 IS DISTORTING EXCESSIVELY.
   ELEMENT ARTERY-1.67 IS DISTORTING EXCESSIVELY.
   ELEMENT ARTERY-1.68 IS DISTORTING EXCESSIVELY.
   ELEMENT ARTERY-1.68 IS DISTORTING EXCESSIVELY.
   ELEMENT ARTERY-1.68 IS DISTORTING EXCESSIVELY.
   ELEMENT ARTERY-1.68 IS DISTORTING EXCESSIVELY.
   ELEMENT ARTERY-1.68 IS DISTORTING EXCESSIVELY.
   ELEMENT ARTERY-1.68 IS DISTORTING EXCESSIVELY.
   ELEMENT ARTERY-1.68 IS DISTORTING EXCESSIVELY.
   ELEMENT ARTERY-1.68 IS DISTORTING EXCESSIVELY.
   ELEMENT ARTERY-1.69 IS DISTORTING EXCESSIVELY.
   ELEMENT ARTERY-1.69 IS DISTORTING EXCESSIVELY.
   ELEMENT ARTERY-1.69 IS DISTORTING EXCESSIVELY.
   ELEMENT ARTERY-1.69 IS DISTORTING EXCESSIVELY.
   ELEMENT ARTERY-1.69 IS DISTORTING EXCESSIVELY.
   ELEMENT ARTERY-1.69 IS DISTORTING EXCESSIVELY.
   ELEMENT ARTERY-1.69 IS DISTORTING EXCESSIVELY.
   ELEMENT ARTERY-1.69 IS DISTORTING EXCESSIVELY.
   ELEMENT ARTERY-1.70 IS DISTORTING EXCESSIVELY.
   ELEMENT ARTERY-1.70 IS DISTORTING EXCESSIVELY.
   ELEMENT ARTERY-1.70 IS DISTORTING EXCESSIVELY.
   ELEMENT ARTERY-1.70 IS DISTORTING EXCESSIVELY.
   ELEMENT ARTERY-1.70 IS DISTORTING EXCESSIVELY.
   ELEMENT ARTERY-1.70 IS DISTORTING EXCESSIVELY.
   ELEMENT ARTERY-1.70 IS DISTORTING EXCESSIVELY.
   ELEMENT ARTERY-1.70 IS DISTORTING EXCESSIVELY.
   ELEMENT ARTERY-1.71 IS DISTORTING EXCESSIVELY.
   ELEMENT ARTERY-1.71 IS DISTORTING EXCESSIVELY.
   ELEMENT ARTERY-1.71 IS DISTORTING EXCESSIVELY.
   ELEMENT ARTERY-1.71 IS DISTORTING EXCESSIVELY.
   ELEMENT ARTERY-1.71 IS DISTORTING EXCESSIVELY.
   ELEMENT ARTERY-1.71 IS DISTORTING EXCESSIVELY.
   ELEMENT ARTERY-1.71 IS DISTORTING EXCESSIVELY.
   ELEMENT ARTERY-1.71 IS DISTORTING EXCESSIVELY.
   ELEMENT ARTERY-1.72 IS DISTORTING EXCESSIVELY.
   ELEMENT ARTERY-1.72 IS DISTORTING EXCESSIVELY.
   ELEMENT ARTERY-1.72 IS DISTORTING EXCESSIVELY.
   ELEMENT ARTERY-1.72 IS DISTORTING EXCESSIVELY.
   ELEMENT ARTERY-1.72 IS DISTORTING EXCESSIVELY.
   ELEMENT ARTERY-1.72 IS DISTORTING EXCESSIVELY.
   ELEMENT ARTERY-1.72 IS DISTORTING EXCESSIVELY.
   ELEMENT ARTERY-1.72 IS DISTORTING EXCESSIVELY.
   ELEMENT ARTERY-1.73 IS DISTORTING EXCESSIVELY.
   ELEMENT ARTERY-1.73 IS DISTORTING EXCESSIVELY.
   ELEMENT ARTERY-1.73 IS DISTORTING EXCESSIVELY.
   ELEMENT ARTERY-1.73 IS DISTORTING EXCESSIVELY.
   ELEMENT ARTERY-1.73 IS DISTORTING EXCESSIVELY.
   ELEMENT ARTERY-1.73 IS DISTORTING EXCESSIVELY.
   ELEMENT ARTERY-1.73 IS DISTORTING EXCESSIVELY.
   ELEMENT ARTERY-1.73 IS DISTORTING EXCESSIVELY.
   ELEMENT ARTERY-1.74 IS DISTORTING EXCESSIVELY.
   ELEMENT ARTERY-1.74 IS DISTORTING EXCESSIVELY.
   ELEMENT ARTERY-1.74 IS DISTORTING EXCESSIVELY.
   ELEMENT ARTERY-1.74 IS DISTORTING EXCESSIVELY.
   ELEMENT ARTERY-1.74 IS DISTORTING EXCESSIVELY.
   ELEMENT ARTERY-1.74 IS DISTORTING EXCESSIVELY.
   ELEMENT ARTERY-1.74 IS DISTORTING EXCESSIVELY.
   ELEMENT ARTERY-1.74 IS DISTORTING EXCESSIVELY.
   ELEMENT ARTERY-1.75 IS DISTORTING EXCESSIVELY.
   ELEMENT ARTERY-1.75 IS DISTORTING EXCESSIVELY.
   ELEMENT ARTERY-1.75 IS DISTORTING EXCESSIVELY.
   ELEMENT ARTERY-1.75 IS DISTORTING EXCESSIVELY.
   ELEMENT ARTERY-1.75 IS DISTORTING EXCESSIVELY.
   ELEMENT ARTERY-1.75 IS DISTORTING EXCESSIVELY.
   ELEMENT ARTERY-1.75 IS DISTORTING EXCESSIVELY.
   ELEMENT ARTERY-1.75 IS DISTORTING EXCESSIVELY.
   ELEMENT ARTERY-1.76 IS DISTORTING EXCESSIVELY.
   ELEMENT ARTERY-1.76 IS DISTORTING EXCESSIVELY.
   ELEMENT ARTERY-1.76 IS DISTORTING EXCESSIVELY.
   ELEMENT ARTERY-1.76 IS DISTORTING EXCESSIVELY.
   ELEMENT ARTERY-1.76 IS DISTORTING EXCESSIVELY.
   ELEMENT ARTERY-1.76 IS DISTORTING EXCESSIVELY.
   ELEMENT ARTERY-1.76 IS DISTORTING EXCESSIVELY.
   ELEMENT ARTERY-1.76 IS DISTORTING EXCESSIVELY.
   ELEMENT ARTERY-1.77 IS DISTORTING EXCESSIVELY.
   ELEMENT ARTERY-1.77 IS DISTORTING EXCESSIVELY.
   ELEMENT ARTERY-1.77 IS DISTORTING EXCESSIVELY.
   ELEMENT ARTERY-1.77 IS DISTORTING EXCESSIVELY.
   ELEMENT ARTERY-1.77 IS DISTORTING EXCESSIVELY.
   ELEMENT ARTERY-1.77 IS DISTORTING EXCESSIVELY.
   ELEMENT ARTERY-1.77 IS DISTORTING EXCESSIVELY.
   ELEMENT ARTERY-1.77 IS DISTORTING EXCESSIVELY.
   ELEMENT ARTERY-1.78 IS DISTORTING EXCESSIVELY.
   ELEMENT ARTERY-1.78 IS DISTORTING EXCESSIVELY.
   ELEMENT ARTERY-1.78 IS DISTORTING EXCESSIVELY.
   ELEMENT ARTERY-1.78 IS DISTORTING EXCESSIVELY.
   ELEMENT ARTERY-1.78 IS DISTORTING EXCESSIVELY.
   ELEMENT ARTERY-1.78 IS DISTORTING EXCESSIVELY.
   ELEMENT ARTERY-1.78 IS DISTORTING EXCESSIVELY.
   ELEMENT ARTERY-1.78 IS DISTORTING EXCESSIVELY.
   ELEMENT ARTERY-1.79 IS DISTORTING EXCESSIVELY.
   ELEMENT ARTERY-1.79 IS DISTORTING EXCESSIVELY.
   ELEMENT ARTERY-1.79 IS DISTORTING EXCESSIVELY.
   ELEMENT ARTERY-1.79 IS DISTORTING EXCESSIVELY.
   ELEMENT ARTERY-1.79 IS DISTORTING EXCESSIVELY.
   ELEMENT ARTERY-1.79 IS DISTORTING EXCESSIVELY.
   ELEMENT ARTERY-1.79 IS DISTORTING EXCESSIVELY.
   ELEMENT ARTERY-1.79 IS DISTORTING EXCESSIVELY.
   ELEMENT ARTERY-1.80 IS DISTORTING EXCESSIVELY.
   ELEMENT ARTERY-1.80 IS DISTORTING EXCESSIVELY.
   ELEMENT ARTERY-1.80 IS DISTORTING EXCESSIVELY.
   ELEMENT ARTERY-1.80 IS DISTORTING EXCESSIVELY.
   ELEMENT ARTERY-1.80 IS DISTORTING EXCESSIVELY.
   ELEMENT ARTERY-1.80 IS DISTORTING EXCESSIVELY.
   ELEMENT ARTERY-1.80 IS DISTORTING EXCESSIVELY.
   ELEMENT ARTERY-1.80 IS DISTORTING EXCESSIVELY.
   ELEMENT ARTERY-1.81 IS DISTORTING EXCESSIVELY.
   ELEMENT ARTERY-1.81 IS DISTORTING EXCESSIVELY.
   ELEMENT ARTERY-1.81 IS DISTORTING EXCESSIVELY.
   ELEMENT ARTERY-1.81 IS DISTORTING EXCESSIVELY.
   ELEMENT ARTERY-1.81 IS DISTORTING EXCESSIVELY.
   ELEMENT ARTERY-1.81 IS DISTORTING EXCESSIVELY.
   ELEMENT ARTERY-1.81 IS DISTORTING EXCESSIVELY.
   ELEMENT ARTERY-1.81 IS DISTORTING EXCESSIVELY.
   ELEMENT ARTERY-1.82 IS DISTORTING EXCESSIVELY.
   ELEMENT ARTERY-1.82 IS DISTORTING EXCESSIVELY.
   ELEMENT ARTERY-1.82 IS DISTORTING EXCESSIVELY.
   ELEMENT ARTERY-1.82 IS DISTORTING EXCESSIVELY.
   ELEMENT ARTERY-1.82 IS DISTORTING EXCESSIVELY.
   ELEMENT ARTERY-1.82 IS DISTORTING EXCESSIVELY.
   ELEMENT ARTERY-1.82 IS DISTORTING EXCESSIVELY.
   ELEMENT ARTERY-1.82 IS DISTORTING EXCESSIVELY.
   ELEMENT ARTERY-1.83 IS DISTORTING EXCESSIVELY.
   ELEMENT ARTERY-1.83 IS DISTORTING EXCESSIVELY.
   ELEMENT ARTERY-1.83 IS DISTORTING EXCESSIVELY.
   ELEMENT ARTERY-1.83 IS DISTORTING EXCESSIVELY.
   ELEMENT ARTERY-1.83 IS DISTORTING EXCESSIVELY.
   ELEMENT ARTERY-1.83 IS DISTORTING EXCESSIVELY.
   ELEMENT ARTERY-1.83 IS DISTORTING EXCESSIVELY.
   ELEMENT ARTERY-1.83 IS DISTORTING EXCESSIVELY.
   ELEMENT ARTERY-1.84 IS DISTORTING EXCESSIVELY.
   ELEMENT ARTERY-1.84 IS DISTORTING EXCESSIVELY.
   ELEMENT ARTERY-1.84 IS DISTORTING EXCESSIVELY.
   ELEMENT ARTERY-1.84 IS DISTORTING EXCESSIVELY.
   ELEMENT ARTERY-1.84 IS DISTORTING EXCESSIVELY.
   ELEMENT ARTERY-1.84 IS DISTORTING EXCESSIVELY.
   ELEMENT ARTERY-1.84 IS DISTORTING EXCESSIVELY.
   ELEMENT ARTERY-1.84 IS DISTORTING EXCESSIVELY.
   ELEMENT ARTERY-1.85 IS DISTORTING EXCESSIVELY.
   ELEMENT ARTERY-1.85 IS DISTORTING EXCESSIVELY.
   ELEMENT ARTERY-1.85 IS DISTORTING EXCESSIVELY.
   ELEMENT ARTERY-1.85 IS DISTORTING EXCESSIVELY.
   ELEMENT ARTERY-1.85 IS DISTORTING EXCESSIVELY.
   ELEMENT ARTERY-1.85 IS DISTORTING EXCESSIVELY.
   ELEMENT ARTERY-1.85 IS DISTORTING EXCESSIVELY.
   ELEMENT ARTERY-1.85 IS DISTORTING EXCESSIVELY.
   ELEMENT ARTERY-1.86 IS DISTORTING EXCESSIVELY.
   ELEMENT ARTERY-1.86 IS DISTORTING EXCESSIVELY.
   ELEMENT ARTERY-1.86 IS DISTORTING EXCESSIVELY.
   ELEMENT ARTERY-1.86 IS DISTORTING EXCESSIVELY.
   ELEMENT ARTERY-1.86 IS DISTORTING EXCESSIVELY.
   ELEMENT ARTERY-1.86 IS DISTORTING EXCESSIVELY.
   ELEMENT ARTERY-1.86 IS DISTORTING EXCESSIVELY.
   ELEMENT ARTERY-1.86 IS DISTORTING EXCESSIVELY.
   ELEMENT ARTERY-1.87 IS DISTORTING EXCESSIVELY.
   ELEMENT ARTERY-1.87 IS DISTORTING EXCESSIVELY.
   ELEMENT ARTERY-1.87 IS DISTORTING EXCESSIVELY.
   ELEMENT ARTERY-1.87 IS DISTORTING EXCESSIVELY.
   ELEMENT ARTERY-1.87 IS DISTORTING EXCESSIVELY.
   ELEMENT ARTERY-1.87 IS DISTORTING EXCESSIVELY.
   ELEMENT ARTERY-1.87 IS DISTORTING EXCESSIVELY.
   ELEMENT ARTERY-1.87 IS DISTORTING EXCESSIVELY.
   ELEMENT ARTERY-1.88 IS DISTORTING EXCESSIVELY.
   ELEMENT ARTERY-1.88 IS DISTORTING EXCESSIVELY.
   ELEMENT ARTERY-1.88 IS DISTORTING EXCESSIVELY.
   ELEMENT ARTERY-1.88 IS DISTORTING EXCESSIVELY.
   ELEMENT ARTERY-1.88 IS DISTORTING EXCESSIVELY.
   ELEMENT ARTERY-1.88 IS DISTORTING EXCESSIVELY.
   ELEMENT ARTERY-1.88 IS DISTORTING EXCESSIVELY.
   ELEMENT ARTERY-1.88 IS DISTORTING EXCESSIVELY.
   ELEMENT ARTERY-1.89 IS DISTORTING EXCESSIVELY.
   ELEMENT ARTERY-1.89 IS DISTORTING EXCESSIVELY.
   ELEMENT ARTERY-1.89 IS DISTORTING EXCESSIVELY.
   ELEMENT ARTERY-1.89 IS DISTORTING EXCESSIVELY.
   ELEMENT ARTERY-1.89 IS DISTORTING EXCESSIVELY.
   ELEMENT ARTERY-1.89 IS DISTORTING EXCESSIVELY.
   ELEMENT ARTERY-1.89 IS DISTORTING EXCESSIVELY.
   ELEMENT ARTERY-1.89 IS DISTORTING EXCESSIVELY.
   ELEMENT ARTERY-1.90 IS DISTORTING EXCESSIVELY.
   ELEMENT ARTERY-1.90 IS DISTORTING EXCESSIVELY.
   ELEMENT ARTERY-1.90 IS DISTORTING EXCESSIVELY.
   ELEMENT ARTERY-1.90 IS DISTORTING EXCESSIVELY.
   ELEMENT ARTERY-1.90 IS DISTORTING EXCESSIVELY.
   ELEMENT ARTERY-1.90 IS DISTORTING EXCESSIVELY.
   ELEMENT ARTERY-1.90 IS DISTORTING EXCESSIVELY.
   ELEMENT ARTERY-1.90 IS DISTORTING EXCESSIVELY.
   ELEMENT ARTERY-1.91 IS DISTORTING EXCESSIVELY.
   ELEMENT ARTERY-1.91 IS DISTORTING EXCESSIVELY.
   ELEMENT ARTERY-1.91 IS DISTORTING EXCESSIVELY.
   ELEMENT ARTERY-1.91 IS DISTORTING EXCESSIVELY.
   ELEMENT ARTERY-1.91 IS DISTORTING EXCESSIVELY.
   ELEMENT ARTERY-1.91 IS DISTORTING EXCESSIVELY.
   ELEMENT ARTERY-1.91 IS DISTORTING EXCESSIVELY.
   ELEMENT ARTERY-1.91 IS DISTORTING EXCESSIVELY.
   ELEMENT ARTERY-1.92 IS DISTORTING EXCESSIVELY.
   ELEMENT ARTERY-1.92 IS DISTORTING EXCESSIVELY.
   ELEMENT ARTERY-1.92 IS DISTORTING EXCESSIVELY.
   ELEMENT ARTERY-1.92 IS DISTORTING EXCESSIVELY.
   ELEMENT ARTERY-1.92 IS DISTORTING EXCESSIVELY.
   ELEMENT ARTERY-1.92 IS DISTORTING EXCESSIVELY.
   ELEMENT ARTERY-1.92 IS DISTORTING EXCESSIVELY.
   ELEMENT ARTERY-1.92 IS DISTORTING EXCESSIVELY.
   ELEMENT ARTERY-1.93 IS DISTORTING EXCESSIVELY.
   ELEMENT ARTERY-1.93 IS DISTORTING EXCESSIVELY.
   ELEMENT ARTERY-1.93 IS DISTORTING EXCESSIVELY.
   ELEMENT ARTERY-1.93 IS DISTORTING EXCESSIVELY.
   ELEMENT ARTERY-1.93 IS DISTORTING EXCESSIVELY.
   ELEMENT ARTERY-1.93 IS DISTORTING EXCESSIVELY.
   ELEMENT ARTERY-1.93 IS DISTORTING EXCESSIVELY.
   ELEMENT ARTERY-1.93 IS DISTORTING EXCESSIVELY.
   ELEMENT ARTERY-1.94 IS DISTORTING EXCESSIVELY.
   ELEMENT ARTERY-1.94 IS DISTORTING EXCESSIVELY.
   ELEMENT ARTERY-1.94 IS DISTORTING EXCESSIVELY.
   ELEMENT ARTERY-1.94 IS DISTORTING EXCESSIVELY.
   ELEMENT ARTERY-1.94 IS DISTORTING EXCESSIVELY.
   ELEMENT ARTERY-1.94 IS DISTORTING EXCESSIVELY.
   ELEMENT ARTERY-1.94 IS DISTORTING EXCESSIVELY.
   ELEMENT ARTERY-1.94 IS DISTORTING EXCESSIVELY.
   ELEMENT ARTERY-1.95 IS DISTORTING EXCESSIVELY.
   ELEMENT ARTERY-1.95 IS DISTORTING EXCESSIVELY.
   ELEMENT ARTERY-1.95 IS DISTORTING EXCESSIVELY.
   ELEMENT ARTERY-1.95 IS DISTORTING EXCESSIVELY.
   ELEMENT ARTERY-1.95 IS DISTORTING EXCESSIVELY.
   ELEMENT ARTERY-1.95 IS DISTORTING EXCESSIVELY.
   ELEMENT ARTERY-1.95 IS DISTORTING EXCESSIVELY.
   ELEMENT ARTERY-1.95 IS DISTORTING EXCESSIVELY.
   ELEMENT ARTERY-1.96 IS DISTORTING EXCESSIVELY.
   ELEMENT ARTERY-1.96 IS DISTORTING EXCESSIVELY.
   ELEMENT ARTERY-1.96 IS DISTORTING EXCESSIVELY.
   ELEMENT ARTERY-1.96 IS DISTORTING EXCESSIVELY.
   ELEMENT ARTERY-1.96 IS DISTORTING EXCESSIVELY.
   ELEMENT ARTERY-1.96 IS DISTORTING EXCESSIVELY.
   ELEMENT ARTERY-1.96 IS DISTORTING EXCESSIVELY.
   ELEMENT ARTERY-1.96 IS DISTORTING EXCESSIVELY.
   ELEMENT ARTERY-1.97 IS DISTORTING EXCESSIVELY.
   ELEMENT ARTERY-1.97 IS DISTORTING EXCESSIVELY.
   ELEMENT ARTERY-1.97 IS DISTORTING EXCESSIVELY.
   ELEMENT ARTERY-1.97 IS DISTORTING EXCESSIVELY.
   ELEMENT ARTERY-1.97 IS DISTORTING EXCESSIVELY.
   ELEMENT ARTERY-1.97 IS DISTORTING EXCESSIVELY.
   ELEMENT ARTERY-1.97 IS DISTORTING EXCESSIVELY.
   ELEMENT ARTERY-1.97 IS DISTORTING EXCESSIVELY.
   ELEMENT ARTERY-1.98 IS DISTORTING EXCESSIVELY.
   ELEMENT ARTERY-1.98 IS DISTORTING EXCESSIVELY.
   ELEMENT ARTERY-1.98 IS DISTORTING EXCESSIVELY.
   ELEMENT ARTERY-1.98 IS DISTORTING EXCESSIVELY.
   ELEMENT ARTERY-1.98 IS DISTORTING EXCESSIVELY.
   ELEMENT ARTERY-1.98 IS DISTORTING EXCESSIVELY.
   ELEMENT ARTERY-1.98 IS DISTORTING EXCESSIVELY.
   ELEMENT ARTERY-1.98 IS DISTORTING EXCESSIVELY.
   ELEMENT ARTERY-1.99 IS DISTORTING EXCESSIVELY.
   ELEMENT ARTERY-1.99 IS DISTORTING EXCESSIVELY.
   ELEMENT ARTERY-1.99 IS DISTORTING EXCESSIVELY.
   ELEMENT ARTERY-1.99 IS DISTORTING EXCESSIVELY.
   ELEMENT ARTERY-1.99 IS DISTORTING EXCESSIVELY.
   ELEMENT ARTERY-1.99 IS DISTORTING EXCESSIVELY.
   ELEMENT ARTERY-1.99 IS DISTORTING EXCESSIVELY.
   ELEMENT ARTERY-1.99 IS DISTORTING EXCESSIVELY.
   ELEMENT ARTERY-1.100 IS DISTORTING EXCESSIVELY.
   ELEMENT ARTERY-1.100 IS DISTORTING EXCESSIVELY.
   ELEMENT ARTERY-1.100 IS DISTORTING EXCESSIVELY.
   ELEMENT ARTERY-1.100 IS DISTORTING EXCESSIVELY.
   ELEMENT ARTERY-1.100 IS DISTORTING EXCESSIVELY.
   ELEMENT ARTERY-1.100 IS DISTORTING EXCESSIVELY.
   ELEMENT ARTERY-1.100 IS DISTORTING EXCESSIVELY.
   ELEMENT ARTERY-1.100 IS DISTORTING EXCESSIVELY.
   ELEMENT ARTERY-1.101 IS DISTORTING EXCESSIVELY.
   ELEMENT ARTERY-1.101 IS DISTORTING EXCESSIVELY.
   ELEMENT ARTERY-1.101 IS DISTORTING EXCESSIVELY.
   ELEMENT ARTERY-1.101 IS DISTORTING EXCESSIVELY.
   ELEMENT ARTERY-1.101 IS DISTORTING EXCESSIVELY.
   ELEMENT ARTERY-1.101 IS DISTORTING EXCESSIVELY.
   ELEMENT ARTERY-1.101 IS DISTORTING EXCESSIVELY.
   ELEMENT ARTERY-1.101 IS DISTORTING EXCESSIVELY.
   ELEMENT ARTERY-1.102 IS DISTORTING EXCESSIVELY.
   ELEMENT ARTERY-1.102 IS DISTORTING EXCESSIVELY.
   ELEMENT ARTERY-1.102 IS DISTORTING EXCESSIVELY.
   ELEMENT ARTERY-1.102 IS DISTORTING EXCESSIVELY.
   ELEMENT ARTERY-1.102 IS DISTORTING EXCESSIVELY.
   ELEMENT ARTERY-1.102 IS DISTORTING EXCESSIVELY.
   ELEMENT ARTERY-1.102 IS DISTORTING EXCESSIVELY.
   ELEMENT ARTERY-1.102 IS DISTORTING EXCESSIVELY.
   ELEMENT ARTERY-1.103 IS DISTORTING EXCESSIVELY.
   ELEMENT ARTERY-1.103 IS DISTORTING EXCESSIVELY.
   ELEMENT ARTERY-1.103 IS DISTORTING EXCESSIVELY.
   ELEMENT ARTERY-1.103 IS DISTORTING EXCESSIVELY.
   ELEMENT ARTERY-1.103 IS DISTORTING EXCESSIVELY.
   ELEMENT ARTERY-1.103 IS DISTORTING EXCESSIVELY.
   ELEMENT ARTERY-1.103 IS DISTORTING EXCESSIVELY.
   ELEMENT ARTERY-1.103 IS DISTORTING EXCESSIVELY.
   ELEMENT ARTERY-1.104 IS DISTORTING EXCESSIVELY.
   ELEMENT ARTERY-1.104 IS DISTORTING EXCESSIVELY.
   ELEMENT ARTERY-1.104 IS DISTORTING EXCESSIVELY.
   ELEMENT ARTERY-1.104 IS DISTORTING EXCESSIVELY.
   ELEMENT ARTERY-1.104 IS DISTORTING EXCESSIVELY.
   ELEMENT ARTERY-1.104 IS DISTORTING EXCESSIVELY.
   ELEMENT ARTERY-1.104 IS DISTORTING EXCESSIVELY.
   ELEMENT ARTERY-1.104 IS DISTORTING EXCESSIVELY.
   ELEMENT ARTERY-1.105 IS DISTORTING EXCESSIVELY.
   ELEMENT ARTERY-1.105 IS DISTORTING EXCESSIVELY.
   ELEMENT ARTERY-1.105 IS DISTORTING EXCESSIVELY.
   ELEMENT ARTERY-1.105 IS DISTORTING EXCESSIVELY.
   ELEMENT ARTERY-1.105 IS DISTORTING EXCESSIVELY.
   ELEMENT ARTERY-1.105 IS DISTORTING EXCESSIVELY.
   ELEMENT ARTERY-1.105 IS DISTORTING EXCESSIVELY.
   ELEMENT ARTERY-1.105 IS DISTORTING EXCESSIVELY.
   ELEMENT ARTERY-1.106 IS DISTORTING EXCESSIVELY.
   ELEMENT ARTERY-1.106 IS DISTORTING EXCESSIVELY.
   ELEMENT ARTERY-1.106 IS DISTORTING EXCESSIVELY.
   ELEMENT ARTERY-1.106 IS DISTORTING EXCESSIVELY.
   ELEMENT ARTERY-1.106 IS DISTORTING EXCESSIVELY.
   ELEMENT ARTERY-1.106 IS DISTORTING EXCESSIVELY.
   ELEMENT ARTERY-1.106 IS DISTORTING EXCESSIVELY.
   ELEMENT ARTERY-1.106 IS DISTORTING EXCESSIVELY.
   ELEMENT ARTERY-1.107 IS DISTORTING EXCESSIVELY.
   ELEMENT ARTERY-1.107 IS DISTORTING EXCESSIVELY.
   ELEMENT ARTERY-1.107 IS DISTORTING EXCESSIVELY.
   ELEMENT ARTERY-1.107 IS DISTORTING EXCESSIVELY.
   ELEMENT ARTERY-1.107 IS DISTORTING EXCESSIVELY.
   ELEMENT ARTERY-1.107 IS DISTORTING EXCESSIVELY.
   ELEMENT ARTERY-1.107 IS DISTORTING EXCESSIVELY.
   ELEMENT ARTERY-1.107 IS DISTORTING EXCESSIVELY.
   ELEMENT ARTERY-1.108 IS DISTORTING EXCESSIVELY.
   ELEMENT ARTERY-1.108 IS DISTORTING EXCESSIVELY.
   ELEMENT ARTERY-1.108 IS DISTORTING EXCESSIVELY.
   ELEMENT ARTERY-1.108 IS DISTORTING EXCESSIVELY.
   ELEMENT ARTERY-1.108 IS DISTORTING EXCESSIVELY.
   ELEMENT ARTERY-1.108 IS DISTORTING EXCESSIVELY.
   ELEMENT ARTERY-1.108 IS DISTORTING EXCESSIVELY.
   ELEMENT ARTERY-1.108 IS DISTORTING EXCESSIVELY.
   ELEMENT ARTERY-1.109 IS DISTORTING EXCESSIVELY.
   ELEMENT ARTERY-1.109 IS DISTORTING EXCESSIVELY.
   ELEMENT ARTERY-1.109 IS DISTORTING EXCESSIVELY.
   ELEMENT ARTERY-1.109 IS DISTORTING EXCESSIVELY.
   ELEMENT ARTERY-1.109 IS DISTORTING EXCESSIVELY.
   ELEMENT ARTERY-1.109 IS DISTORTING EXCESSIVELY.
   ELEMENT ARTERY-1.109 IS DISTORTING EXCESSIVELY.
   ELEMENT ARTERY-1.109 IS DISTORTING EXCESSIVELY.
   ELEMENT ARTERY-1.110 IS DISTORTING EXCESSIVELY.
   ELEMENT ARTERY-1.110 IS DISTORTING EXCESSIVELY.
   ELEMENT ARTERY-1.110 IS DISTORTING EXCESSIVELY.
   ELEMENT ARTERY-1.110 IS DISTORTING EXCESSIVELY.
   ELEMENT ARTERY-1.110 IS DISTORTING EXCESSIVELY.
   ELEMENT ARTERY-1.110 IS DISTORTING EXCESSIVELY.
   ELEMENT ARTERY-1.110 IS DISTORTING EXCESSIVELY.
   ELEMENT ARTERY-1.110 IS DISTORTING EXCESSIVELY.
   ELEMENT ARTERY-1.111 IS DISTORTING EXCESSIVELY.
   ELEMENT ARTERY-1.111 IS DISTORTING EXCESSIVELY.
   ELEMENT ARTERY-1.111 IS DISTORTING EXCESSIVELY.
   ELEMENT ARTERY-1.111 IS DISTORTING EXCESSIVELY.
   ELEMENT ARTERY-1.111 IS DISTORTING EXCESSIVELY.
   ELEMENT ARTERY-1.111 IS DISTORTING EXCESSIVELY.
   ELEMENT ARTERY-1.111 IS DISTORTING EXCESSIVELY.
   ELEMENT ARTERY-1.111 IS DISTORTING EXCESSIVELY.
   ELEMENT ARTERY-1.112 IS DISTORTING EXCESSIVELY.
   ELEMENT ARTERY-1.112 IS DISTORTING EXCESSIVELY.
   ELEMENT ARTERY-1.112 IS DISTORTING EXCESSIVELY.
   ELEMENT ARTERY-1.112 IS DISTORTING EXCESSIVELY.
   ELEMENT ARTERY-1.112 IS DISTORTING EXCESSIVELY.
   ELEMENT ARTERY-1.112 IS DISTORTING EXCESSIVELY.
   ELEMENT ARTERY-1.112 IS DISTORTING EXCESSIVELY.
   ELEMENT ARTERY-1.112 IS DISTORTING EXCESSIVELY.
   ELEMENT ARTERY-1.113 IS DISTORTING EXCESSIVELY.
   ELEMENT ARTERY-1.113 IS DISTORTING EXCESSIVELY.
   ELEMENT ARTERY-1.113 IS DISTORTING EXCESSIVELY.
   ELEMENT ARTERY-1.113 IS DISTORTING EXCESSIVELY.
   ELEMENT ARTERY-1.113 IS DISTORTING EXCESSIVELY.
   ELEMENT ARTERY-1.113 IS DISTORTING EXCESSIVELY.
   ELEMENT ARTERY-1.113 IS DISTORTING EXCESSIVELY.
   ELEMENT ARTERY-1.113 IS DISTORTING EXCESSIVELY.
   ELEMENT ARTERY-1.114 IS DISTORTING EXCESSIVELY.
   ELEMENT ARTERY-1.114 IS DISTORTING EXCESSIVELY.
   ELEMENT ARTERY-1.114 IS DISTORTING EXCESSIVELY.
   ELEMENT ARTERY-1.114 IS DISTORTING EXCESSIVELY.
   ELEMENT ARTERY-1.114 IS DISTORTING EXCESSIVELY.
   ELEMENT ARTERY-1.114 IS DISTORTING EXCESSIVELY.
   ELEMENT ARTERY-1.114 IS DISTORTING EXCESSIVELY.
   ELEMENT ARTERY-1.114 IS DISTORTING EXCESSIVELY.
   ELEMENT ARTERY-1.115 IS DISTORTING EXCESSIVELY.
   ELEMENT ARTERY-1.115 IS DISTORTING EXCESSIVELY.
   ELEMENT ARTERY-1.115 IS DISTORTING EXCESSIVELY.
   ELEMENT ARTERY-1.115 IS DISTORTING EXCESSIVELY.
   ELEMENT ARTERY-1.115 IS DISTORTING EXCESSIVELY.
   ELEMENT ARTERY-1.115 IS DISTORTING EXCESSIVELY.
   ELEMENT ARTERY-1.115 IS DISTORTING EXCESSIVELY.
   ELEMENT ARTERY-1.115 IS DISTORTING EXCESSIVELY.
   ELEMENT ARTERY-1.116 IS DISTORTING EXCESSIVELY.
   ELEMENT ARTERY-1.116 IS DISTORTING EXCESSIVELY.
   ELEMENT ARTERY-1.116 IS DISTORTING EXCESSIVELY.
   ELEMENT ARTERY-1.116 IS DISTORTING EXCESSIVELY.
   ELEMENT ARTERY-1.116 IS DISTORTING EXCESSIVELY.
   ELEMENT ARTERY-1.116 IS DISTORTING EXCESSIVELY.
   ELEMENT ARTERY-1.116 IS DISTORTING EXCESSIVELY.
   ELEMENT ARTERY-1.116 IS DISTORTING EXCESSIVELY.
   ELEMENT ARTERY-1.117 IS DISTORTING EXCESSIVELY.
   ELEMENT ARTERY-1.117 IS DISTORTING EXCESSIVELY.
   ELEMENT ARTERY-1.117 IS DISTORTING EXCESSIVELY.
   ELEMENT ARTERY-1.117 IS DISTORTING EXCESSIVELY.
   ELEMENT ARTERY-1.117 IS DISTORTING EXCESSIVELY.
   ELEMENT ARTERY-1.117 IS DISTORTING EXCESSIVELY.
   ELEMENT ARTERY-1.117 IS DISTORTING EXCESSIVELY.
   ELEMENT ARTERY-1.117 IS DISTORTING EXCESSIVELY.
   ELEMENT ARTERY-1.118 IS DISTORTING EXCESSIVELY.
   ELEMENT ARTERY-1.118 IS DISTORTING EXCESSIVELY.
   ELEMENT ARTERY-1.118 IS DISTORTING EXCESSIVELY.
   ELEMENT ARTERY-1.118 IS DISTORTING EXCESSIVELY.
   ELEMENT ARTERY-1.118 IS DISTORTING EXCESSIVELY.
   ELEMENT ARTERY-1.118 IS DISTORTING EXCESSIVELY.
   ELEMENT ARTERY-1.118 IS DISTORTING EXCESSIVELY.
   ELEMENT ARTERY-1.118 IS DISTORTING EXCESSIVELY.
   ELEMENT ARTERY-1.119 IS DISTORTING EXCESSIVELY.
   ELEMENT ARTERY-1.119 IS DISTORTING EXCESSIVELY.
   ELEMENT ARTERY-1.119 IS DISTORTING EXCESSIVELY.
   ELEMENT ARTERY-1.119 IS DISTORTING EXCESSIVELY.
   ELEMENT ARTERY-1.119 IS DISTORTING EXCESSIVELY.
   ELEMENT ARTERY-1.119 IS DISTORTING EXCESSIVELY.
   ELEMENT ARTERY-1.119 IS DISTORTING EXCESSIVELY.
   ELEMENT ARTERY-1.119 IS DISTORTING EXCESSIVELY.
   ELEMENT ARTERY-1.120 IS DISTORTING EXCESSIVELY.
   ELEMENT ARTERY-1.120 IS DISTORTING EXCESSIVELY.
   ELEMENT ARTERY-1.120 IS DISTORTING EXCESSIVELY.
   ELEMENT ARTERY-1.120 IS DISTORTING EXCESSIVELY.
   ELEMENT ARTERY-1.120 IS DISTORTING EXCESSIVELY.
   ELEMENT ARTERY-1.120 IS DISTORTING EXCESSIVELY.
   ELEMENT ARTERY-1.120 IS DISTORTING EXCESSIVELY.
   ELEMENT ARTERY-1.120 IS DISTORTING EXCESSIVELY.
   ELEMENT ARTERY-1.121 IS DISTORTING EXCESSIVELY.
   ELEMENT ARTERY-1.121 IS DISTORTING EXCESSIVELY.
   ELEMENT ARTERY-1.121 IS DISTORTING EXCESSIVELY.
   ELEMENT ARTERY-1.121 IS DISTORTING EXCESSIVELY.
   ELEMENT ARTERY-1.121 IS DISTORTING EXCESSIVELY.
   ELEMENT ARTERY-1.121 IS DISTORTING EXCESSIVELY.
   ELEMENT ARTERY-1.121 IS DISTORTING EXCESSIVELY.
   ELEMENT ARTERY-1.121 IS DISTORTING EXCESSIVELY.
   ELEMENT ARTERY-1.122 IS DISTORTING EXCESSIVELY.
   ELEMENT ARTERY-1.122 IS DISTORTING EXCESSIVELY.
   ELEMENT ARTERY-1.122 IS DISTORTING EXCESSIVELY.
   ELEMENT ARTERY-1.122 IS DISTORTING EXCESSIVELY.
   ELEMENT ARTERY-1.122 IS DISTORTING EXCESSIVELY.
   ELEMENT ARTERY-1.122 IS DISTORTING EXCESSIVELY.
   ELEMENT ARTERY-1.122 IS DISTORTING EXCESSIVELY.
   ELEMENT ARTERY-1.122 IS DISTORTING EXCESSIVELY.
   ELEMENT ARTERY-1.123 IS DISTORTING EXCESSIVELY.
   ELEMENT ARTERY-1.123 IS DISTORTING EXCESSIVELY.
   ELEMENT ARTERY-1.123 IS DISTORTING EXCESSIVELY.
   ELEMENT ARTERY-1.123 IS DISTORTING EXCESSIVELY.
   ELEMENT ARTERY-1.123 IS DISTORTING EXCESSIVELY.
   ELEMENT ARTERY-1.123 IS DISTORTING EXCESSIVELY.
   ELEMENT ARTERY-1.123 IS DISTORTING EXCESSIVELY.
   ELEMENT ARTERY-1.123 IS DISTORTING EXCESSIVELY.
   ELEMENT ARTERY-1.124 IS DISTORTING EXCESSIVELY.
   ELEMENT ARTERY-1.124 IS DISTORTING EXCESSIVELY.
   ELEMENT ARTERY-1.124 IS DISTORTING EXCESSIVELY.
   ELEMENT ARTERY-1.124 IS DISTORTING EXCESSIVELY.
   ELEMENT ARTERY-1.124 IS DISTORTING EXCESSIVELY.
   ELEMENT ARTERY-1.124 IS DISTORTING EXCESSIVELY.
   ELEMENT ARTERY-1.124 IS DISTORTING EXCESSIVELY.
   ELEMENT ARTERY-1.124 IS DISTORTING EXCESSIVELY.
   ELEMENT ARTERY-1.125 IS DISTORTING EXCESSIVELY.
   ELEMENT ARTERY-1.125 IS DISTORTING EXCESSIVELY.
   ELEMENT ARTERY-1.125 IS DISTORTING EXCESSIVELY.
   ELEMENT ARTERY-1.125 IS DISTORTING EXCESSIVELY.
   ELEMENT ARTERY-1.125 IS DISTORTING EXCESSIVELY.
   ELEMENT ARTERY-1.125 IS DISTORTING EXCESSIVELY.
   ELEMENT ARTERY-1.125 IS DISTORTING EXCESSIVELY.
   ELEMENT ARTERY-1.125 IS DISTORTING EXCESSIVELY.
   ELEMENT ARTERY-1.126 IS DISTORTING EXCESSIVELY.
   ELEMENT ARTERY-1.126 IS DISTORTING EXCESSIVELY.
   ELEMENT ARTERY-1.126 IS DISTORTING EXCESSIVELY.
   ELEMENT ARTERY-1.126 IS DISTORTING EXCESSIVELY.
   ELEMENT ARTERY-1.126 IS DISTORTING EXCESSIVELY.
   ELEMENT ARTERY-1.126 IS DISTORTING EXCESSIVELY.
   ELEMENT ARTERY-1.126 IS DISTORTING EXCESSIVELY.
   ELEMENT ARTERY-1.126 IS DISTORTING EXCESSIVELY.
   ELEMENT ARTERY-1.127 IS DISTORTING EXCESSIVELY.
   ELEMENT ARTERY-1.127 IS DISTORTING EXCESSIVELY.
   ELEMENT ARTERY-1.127 IS DISTORTING EXCESSIVELY.
   ELEMENT ARTERY-1.127 IS DISTORTING EXCESSIVELY.
   ELEMENT ARTERY-1.127 IS DISTORTING EXCESSIVELY.
   ELEMENT ARTERY-1.127 IS DISTORTING EXCESSIVELY.
   ELEMENT ARTERY-1.127 IS DISTORTING EXCESSIVELY.
   ELEMENT ARTERY-1.127 IS DISTORTING EXCESSIVELY.
   ELEMENT ARTERY-1.128 IS DISTORTING EXCESSIVELY.
   ELEMENT ARTERY-1.128 IS DISTORTING EXCESSIVELY.
   ELEMENT ARTERY-1.128 IS DISTORTING EXCESSIVELY.
   ELEMENT ARTERY-1.128 IS DISTORTING EXCESSIVELY.
   ELEMENT ARTERY-1.128 IS DISTORTING EXCESSIVELY.
   ELEMENT ARTERY-1.128 IS DISTORTING EXCESSIVELY.
   ELEMENT ARTERY-1.128 IS DISTORTING EXCESSIVELY.
   ELEMENT ARTERY-1.128 IS DISTORTING EXCESSIVELY.
   ELEMENT ARTERY-1.129 IS DISTORTING EXCESSIVELY.
   ELEMENT ARTERY-1.129 IS DISTORTING EXCESSIVELY.
   ELEMENT ARTERY-1.129 IS DISTORTING EXCESSIVELY.
   ELEMENT ARTERY-1.129 IS DISTORTING EXCESSIVELY.
   ELEMENT ARTERY-1.129 IS DISTORTING EXCESSIVELY.
   ELEMENT ARTERY-1.129 IS DISTORTING EXCESSIVELY.
   ELEMENT ARTERY-1.129 IS DISTORTING EXCESSIVELY.
   ELEMENT ARTERY-1.129 IS DISTORTING EXCESSIVELY.
   ELEMENT ARTERY-1.130 IS DISTORTING EXCESSIVELY.
   ELEMENT ARTERY-1.130 IS DISTORTING EXCESSIVELY.
   ELEMENT ARTERY-1.130 IS DISTORTING EXCESSIVELY.
   ELEMENT ARTERY-1.130 IS DISTORTING EXCESSIVELY.
   ELEMENT ARTERY-1.130 IS DISTORTING EXCESSIVELY.
   ELEMENT ARTERY-1.130 IS DISTORTING EXCESSIVELY.
   ELEMENT ARTERY-1.130 IS DISTORTING EXCESSIVELY.
   ELEMENT ARTERY-1.130 IS DISTORTING EXCESSIVELY.
   ELEMENT ARTERY-1.131 IS DISTORTING EXCESSIVELY.
   ELEMENT ARTERY-1.131 IS DISTORTING EXCESSIVELY.
   ELEMENT ARTERY-1.131 IS DISTORTING EXCESSIVELY.
   ELEMENT ARTERY-1.131 IS DISTORTING EXCESSIVELY.
   ELEMENT ARTERY-1.131 IS DISTORTING EXCESSIVELY.
   ELEMENT ARTERY-1.131 IS DISTORTING EXCESSIVELY.
   ELEMENT ARTERY-1.131 IS DISTORTING EXCESSIVELY.
   ELEMENT ARTERY-1.131 IS DISTORTING EXCESSIVELY.
   ELEMENT ARTERY-1.132 IS DISTORTING EXCESSIVELY.
   ELEMENT ARTERY-1.132 IS DISTORTING EXCESSIVELY.
   ELEMENT ARTERY-1.132 IS DISTORTING EXCESSIVELY.
   ELEMENT ARTERY-1.132 IS DISTORTING EXCESSIVELY.
   ELEMENT ARTERY-1.132 IS DISTORTING EXCESSIVELY.
   ELEMENT ARTERY-1.132 IS DISTORTING EXCESSIVELY.
   ELEMENT ARTERY-1.132 IS DISTORTING EXCESSIVELY.
   ELEMENT ARTERY-1.132 IS DISTORTING EXCESSIVELY.
   ELEMENT ARTERY-1.133 IS DISTORTING EXCESSIVELY.
   ELEMENT ARTERY-1.133 IS DISTORTING EXCESSIVELY.
   ELEMENT ARTERY-1.133 IS DISTORTING EXCESSIVELY.
   ELEMENT ARTERY-1.133 IS DISTORTING EXCESSIVELY.
   ELEMENT ARTERY-1.133 IS DISTORTING EXCESSIVELY.
   ELEMENT ARTERY-1.133 IS DISTORTING EXCESSIVELY.
   ELEMENT ARTERY-1.133 IS DISTORTING EXCESSIVELY.
   ELEMENT ARTERY-1.133 IS DISTORTING EXCESSIVELY.
   ELEMENT ARTERY-1.134 IS DISTORTING EXCESSIVELY.
   ELEMENT ARTERY-1.134 IS DISTORTING EXCESSIVELY.
   ELEMENT ARTERY-1.134 IS DISTORTING EXCESSIVELY.
   ELEMENT ARTERY-1.134 IS DISTORTING EXCESSIVELY.
   ELEMENT ARTERY-1.134 IS DISTORTING EXCESSIVELY.
   ELEMENT ARTERY-1.134 IS DISTORTING EXCESSIVELY.
   ELEMENT ARTERY-1.134 IS DISTORTING EXCESSIVELY.
   ELEMENT ARTERY-1.134 IS DISTORTING EXCESSIVELY.
   ELEMENT ARTERY-1.135 IS DISTORTING EXCESSIVELY.
   ELEMENT ARTERY-1.135 IS DISTORTING EXCESSIVELY.
   ELEMENT ARTERY-1.135 IS DISTORTING EXCESSIVELY.
   ELEMENT ARTERY-1.135 IS DISTORTING EXCESSIVELY.
   ELEMENT ARTERY-1.135 IS DISTORTING EXCESSIVELY.
   ELEMENT ARTERY-1.135 IS DISTORTING EXCESSIVELY.
   ELEMENT ARTERY-1.135 IS DISTORTING EXCESSIVELY.
   ELEMENT ARTERY-1.135 IS DISTORTING EXCESSIVELY.
   ELEMENT ARTERY-1.136 IS DISTORTING EXCESSIVELY.
   ELEMENT ARTERY-1.136 IS DISTORTING EXCESSIVELY.
   ELEMENT ARTERY-1.136 IS DISTORTING EXCESSIVELY.
   ELEMENT ARTERY-1.136 IS DISTORTING EXCESSIVELY.
   ELEMENT ARTERY-1.136 IS DISTORTING EXCESSIVELY.
   ELEMENT ARTERY-1.136 IS DISTORTING EXCESSIVELY.
   ELEMENT ARTERY-1.136 IS DISTORTING EXCESSIVELY.
   ELEMENT ARTERY-1.136 IS DISTORTING EXCESSIVELY.
   ELEMENT ARTERY-1.137 IS DISTORTING EXCESSIVELY.
   ELEMENT ARTERY-1.137 IS DISTORTING EXCESSIVELY.
   ELEMENT ARTERY-1.137 IS DISTORTING EXCESSIVELY.
   ELEMENT ARTERY-1.137 IS DISTORTING EXCESSIVELY.
   ELEMENT ARTERY-1.137 IS DISTORTING EXCESSIVELY.
   ELEMENT ARTERY-1.137 IS DISTORTING EXCESSIVELY.
   ELEMENT ARTERY-1.137 IS DISTORTING EXCESSIVELY.
   ELEMENT ARTERY-1.137 IS DISTORTING EXCESSIVELY.
   ELEMENT ARTERY-1.138 IS DISTORTING EXCESSIVELY.
   ELEMENT ARTERY-1.138 IS DISTORTING EXCESSIVELY.
   ELEMENT ARTERY-1.138 IS DISTORTING EXCESSIVELY.
   ELEMENT ARTERY-1.138 IS DISTORTING EXCESSIVELY.
   ELEMENT ARTERY-1.138 IS DISTORTING EXCESSIVELY.
   ELEMENT ARTERY-1.138 IS DISTORTING EXCESSIVELY.
   ELEMENT ARTERY-1.138 IS DISTORTING EXCESSIVELY.
   ELEMENT ARTERY-1.138 IS DISTORTING EXCESSIVELY.
   ELEMENT ARTERY-1.139 IS DISTORTING EXCESSIVELY.
   ELEMENT ARTERY-1.139 IS DISTORTING EXCESSIVELY.
   ELEMENT ARTERY-1.139 IS DISTORTING EXCESSIVELY.
   ELEMENT ARTERY-1.139 IS DISTORTING EXCESSIVELY.
   ELEMENT ARTERY-1.139 IS DISTORTING EXCESSIVELY.
   ELEMENT ARTERY-1.139 IS DISTORTING EXCESSIVELY.
   ELEMENT ARTERY-1.139 IS DISTORTING EXCESSIVELY.
   ELEMENT ARTERY-1.139 IS DISTORTING EXCESSIVELY.
   ELEMENT ARTERY-1.140 IS DISTORTING EXCESSIVELY.
   ELEMENT ARTERY-1.140 IS DISTORTING EXCESSIVELY.
   ELEMENT ARTERY-1.140 IS DISTORTING EXCESSIVELY.
   ELEMENT ARTERY-1.140 IS DISTORTING EXCESSIVELY.
   ELEMENT ARTERY-1.140 IS DISTORTING EXCESSIVELY.
   ELEMENT ARTERY-1.140 IS DISTORTING EXCESSIVELY.
   ELEMENT ARTERY-1.140 IS DISTORTING EXCESSIVELY.
   ELEMENT ARTERY-1.140 IS DISTORTING EXCESSIVELY.
   ELEMENT ARTERY-1.141 IS DISTORTING EXCESSIVELY.
   ELEMENT ARTERY-1.141 IS DISTORTING EXCESSIVELY.
   ELEMENT ARTERY-1.141 IS DISTORTING EXCESSIVELY.
   ELEMENT ARTERY-1.141 IS DISTORTING EXCESSIVELY.
   ELEMENT ARTERY-1.141 IS DISTORTING EXCESSIVELY.
   ELEMENT ARTERY-1.141 IS DISTORTING EXCESSIVELY.
   ELEMENT ARTERY-1.141 IS DISTORTING EXCESSIVELY.
   ELEMENT ARTERY-1.141 IS DISTORTING EXCESSIVELY.
   ELEMENT ARTERY-1.142 IS DISTORTING EXCESSIVELY.
   ELEMENT ARTERY-1.142 IS DISTORTING EXCESSIVELY.
   ELEMENT ARTERY-1.142 IS DISTORTING EXCESSIVELY.
   ELEMENT ARTERY-1.142 IS DISTORTING EXCESSIVELY.
   ELEMENT ARTERY-1.142 IS DISTORTING EXCESSIVELY.
   ELEMENT ARTERY-1.142 IS DISTORTING EXCESSIVELY.
   ELEMENT ARTERY-1.142 IS DISTORTING EXCESSIVELY.
   ELEMENT ARTERY-1.142 IS DISTORTING EXCESSIVELY.
   ELEMENT ARTERY-1.143 IS DISTORTING EXCESSIVELY.
   ELEMENT ARTERY-1.143 IS DISTORTING EXCESSIVELY.
   ELEMENT ARTERY-1.143 IS DISTORTING EXCESSIVELY.
   ELEMENT ARTERY-1.143 IS DISTORTING EXCESSIVELY.
   ELEMENT ARTERY-1.143 IS DISTORTING EXCESSIVELY.
   ELEMENT ARTERY-1.143 IS DISTORTING EXCESSIVELY.
   ELEMENT ARTERY-1.143 IS DISTORTING EXCESSIVELY.
   ELEMENT ARTERY-1.143 IS DISTORTING EXCESSIVELY.
   ELEMENT ARTERY-1.144 IS DISTORTING EXCESSIVELY.
   ELEMENT ARTERY-1.144 IS DISTORTING EXCESSIVELY.
   ELEMENT ARTERY-1.144 IS DISTORTING EXCESSIVELY.
   ELEMENT ARTERY-1.144 IS DISTORTING EXCESSIVELY.
   ELEMENT ARTERY-1.144 IS DISTORTING EXCESSIVELY.
   ELEMENT ARTERY-1.144 IS DISTORTING EXCESSIVELY.
   ELEMENT ARTERY-1.144 IS DISTORTING EXCESSIVELY.
   ELEMENT ARTERY-1.144 IS DISTORTING EXCESSIVELY.
   ELEMENT ARTERY-1.145 IS DISTORTING EXCESSIVELY.
   ELEMENT ARTERY-1.145 IS DISTORTING EXCESSIVELY.
   ELEMENT ARTERY-1.145 IS DISTORTING EXCESSIVELY.
   ELEMENT ARTERY-1.145 IS DISTORTING EXCESSIVELY.
   ELEMENT ARTERY-1.145 IS DISTORTING EXCESSIVELY.
   ELEMENT ARTERY-1.145 IS DISTORTING EXCESSIVELY.
   ELEMENT ARTERY-1.145 IS DISTORTING EXCESSIVELY.
   ELEMENT ARTERY-1.145 IS DISTORTING EXCESSIVELY.
   ELEMENT ARTERY-1.146 IS DISTORTING EXCESSIVELY.
   ELEMENT ARTERY-1.146 IS DISTORTING EXCESSIVELY.
   ELEMENT ARTERY-1.146 IS DISTORTING EXCESSIVELY.
   ELEMENT ARTERY-1.146 IS DISTORTING EXCESSIVELY.
   ELEMENT ARTERY-1.146 IS DISTORTING EXCESSIVELY.
   ELEMENT ARTERY-1.146 IS DISTORTING EXCESSIVELY.
   ELEMENT ARTERY-1.146 IS DISTORTING EXCESSIVELY.
   ELEMENT ARTERY-1.146 IS DISTORTING EXCESSIVELY.
   ELEMENT ARTERY-1.147 IS DISTORTING EXCESSIVELY.
   ELEMENT ARTERY-1.147 IS DISTORTING EXCESSIVELY.
   ELEMENT ARTERY-1.147 IS DISTORTING EXCESSIVELY.
   ELEMENT ARTERY-1.147 IS DISTORTING EXCESSIVELY.
   ELEMENT ARTERY-1.147 IS DISTORTING EXCESSIVELY.
   ELEMENT ARTERY-1.147 IS DISTORTING EXCESSIVELY.
   ELEMENT ARTERY-1.147 IS DISTORTING EXCESSIVELY.
   ELEMENT ARTERY-1.147 IS DISTORTING EXCESSIVELY.
   ELEMENT ARTERY-1.148 IS DISTORTING EXCESSIVELY.
   ELEMENT ARTERY-1.148 IS DISTORTING EXCESSIVELY.
   ELEMENT ARTERY-1.148 IS DISTORTING EXCESSIVELY.
   ELEMENT ARTERY-1.148 IS DISTORTING EXCESSIVELY.
   ELEMENT ARTERY-1.148 IS DISTORTING EXCESSIVELY.
   ELEMENT ARTERY-1.148 IS DISTORTING EXCESSIVELY.
   ELEMENT ARTERY-1.148 IS DISTORTING EXCESSIVELY.
   ELEMENT ARTERY-1.148 IS DISTORTING EXCESSIVELY.
   ELEMENT ARTERY-1.149 IS DISTORTING EXCESSIVELY.
   ELEMENT ARTERY-1.149 IS DISTORTING EXCESSIVELY.
   ELEMENT ARTERY-1.149 IS DISTORTING EXCESSIVELY.
   ELEMENT ARTERY-1.149 IS DISTORTING EXCESSIVELY.
   ELEMENT ARTERY-1.149 IS DISTORTING EXCESSIVELY.
   ELEMENT ARTERY-1.149 IS DISTORTING EXCESSIVELY.
   ELEMENT ARTERY-1.149 IS DISTORTING EXCESSIVELY.
   ELEMENT ARTERY-1.149 IS DISTORTING EXCESSIVELY.
   ELEMENT ARTERY-1.150 IS DISTORTING EXCESSIVELY.
   ELEMENT ARTERY-1.150 IS DISTORTING EXCESSIVELY.
   ELEMENT ARTERY-1.150 IS DISTORTING EXCESSIVELY.
   ELEMENT ARTERY-1.150 IS DISTORTING EXCESSIVELY.
   ELEMENT ARTERY-1.150 IS DISTORTING EXCESSIVELY.
   ELEMENT ARTERY-1.150 IS DISTORTING EXCESSIVELY.
   ELEMENT ARTERY-1.150 IS DISTORTING EXCESSIVELY.
   ELEMENT ARTERY-1.150 IS DISTORTING EXCESSIVELY.
   ELEMENT ARTERY-1.151 IS DISTORTING EXCESSIVELY.
   ELEMENT ARTERY-1.151 IS DISTORTING EXCESSIVELY.
   ELEMENT ARTERY-1.151 IS DISTORTING EXCESSIVELY.
   ELEMENT ARTERY-1.151 IS DISTORTING EXCESSIVELY.
   ELEMENT ARTERY-1.151 IS DISTORTING EXCESSIVELY.
   ELEMENT ARTERY-1.151 IS DISTORTING EXCESSIVELY.
   ELEMENT ARTERY-1.151 IS DISTORTING EXCESSIVELY.
   ELEMENT ARTERY-1.151 IS DISTORTING EXCESSIVELY.
   ELEMENT ARTERY-1.152 IS DISTORTING EXCESSIVELY.
   ELEMENT ARTERY-1.152 IS DISTORTING EXCESSIVELY.
   ELEMENT ARTERY-1.152 IS DISTORTING EXCESSIVELY.
   ELEMENT ARTERY-1.152 IS DISTORTING EXCESSIVELY.
   ELEMENT ARTERY-1.152 IS DISTORTING EXCESSIVELY.
   ELEMENT ARTERY-1.152 IS DISTORTING EXCESSIVELY.
   ELEMENT ARTERY-1.152 IS DISTORTING EXCESSIVELY.
   ELEMENT ARTERY-1.152 IS DISTORTING EXCESSIVELY.
   ELEMENT ARTERY-1.153 IS DISTORTING EXCESSIVELY.
   ELEMENT ARTERY-1.153 IS DISTORTING EXCESSIVELY.
   ELEMENT ARTERY-1.153 IS DISTORTING EXCESSIVELY.
   ELEMENT ARTERY-1.153 IS DISTORTING EXCESSIVELY.
   ELEMENT ARTERY-1.153 IS DISTORTING EXCESSIVELY.
   ELEMENT ARTERY-1.153 IS DISTORTING EXCESSIVELY.
   ELEMENT ARTERY-1.153 IS DISTORTING EXCESSIVELY.
   ELEMENT ARTERY-1.153 IS DISTORTING EXCESSIVELY.
   ELEMENT ARTERY-1.154 IS DISTORTING EXCESSIVELY.
   ELEMENT ARTERY-1.154 IS DISTORTING EXCESSIVELY.
   ELEMENT ARTERY-1.154 IS DISTORTING EXCESSIVELY.
   ELEMENT ARTERY-1.154 IS DISTORTING EXCESSIVELY.
   ELEMENT ARTERY-1.154 IS DISTORTING EXCESSIVELY.
   ELEMENT ARTERY-1.154 IS DISTORTING EXCESSIVELY.
   ELEMENT ARTERY-1.154 IS DISTORTING EXCESSIVELY.
   ELEMENT ARTERY-1.154 IS DISTORTING EXCESSIVELY.
   ELEMENT ARTERY-1.155 IS DISTORTING EXCESSIVELY.
   ELEMENT ARTERY-1.155 IS DISTORTING EXCESSIVELY.
   ELEMENT ARTERY-1.155 IS DISTORTING EXCESSIVELY.
   ELEMENT ARTERY-1.155 IS DISTORTING EXCESSIVELY.
   ELEMENT ARTERY-1.155 IS DISTORTING EXCESSIVELY.
   ELEMENT ARTERY-1.155 IS DISTORTING EXCESSIVELY.
   ELEMENT ARTERY-1.155 IS DISTORTING EXCESSIVELY.
   ELEMENT ARTERY-1.155 IS DISTORTING EXCESSIVELY.
   ELEMENT ARTERY-1.156 IS DISTORTING EXCESSIVELY.
   ELEMENT ARTERY-1.156 IS DISTORTING EXCESSIVELY.
   ELEMENT ARTERY-1.156 IS DISTORTING EXCESSIVELY.
   ELEMENT ARTERY-1.156 IS DISTORTING EXCESSIVELY.
   ELEMENT ARTERY-1.156 IS DISTORTING EXCESSIVELY.
   ELEMENT ARTERY-1.156 IS DISTORTING EXCESSIVELY.
   ELEMENT ARTERY-1.156 IS DISTORTING EXCESSIVELY.
   ELEMENT ARTERY-1.156 IS DISTORTING EXCESSIVELY.
   ELEMENT ARTERY-1.157 IS DISTORTING EXCESSIVELY.
   ELEMENT ARTERY-1.157 IS DISTORTING EXCESSIVELY.
   ELEMENT ARTERY-1.157 IS DISTORTING EXCESSIVELY.
   ELEMENT ARTERY-1.157 IS DISTORTING EXCESSIVELY.
   ELEMENT ARTERY-1.157 IS DISTORTING EXCESSIVELY.
   ELEMENT ARTERY-1.157 IS DISTORTING EXCESSIVELY.
   ELEMENT ARTERY-1.157 IS DISTORTING EXCESSIVELY.
   ELEMENT ARTERY-1.157 IS DISTORTING EXCESSIVELY.
   ELEMENT ARTERY-1.158 IS DISTORTING EXCESSIVELY.
   ELEMENT ARTERY-1.158 IS DISTORTING EXCESSIVELY.
   ELEMENT ARTERY-1.158 IS DISTORTING EXCESSIVELY.
   ELEMENT ARTERY-1.158 IS DISTORTING EXCESSIVELY.
   ELEMENT ARTERY-1.158 IS DISTORTING EXCESSIVELY.
   ELEMENT ARTERY-1.158 IS DISTORTING EXCESSIVELY.
   ELEMENT ARTERY-1.158 IS DISTORTING EXCESSIVELY.
   ELEMENT ARTERY-1.158 IS DISTORTING EXCESSIVELY.
   ELEMENT ARTERY-1.159 IS DISTORTING EXCESSIVELY.
   ELEMENT ARTERY-1.159 IS DISTORTING EXCESSIVELY.
   ELEMENT ARTERY-1.159 IS DISTORTING EXCESSIVELY.
   ELEMENT ARTERY-1.159 IS DISTORTING EXCESSIVELY.
   ELEMENT ARTERY-1.159 IS DISTORTING EXCESSIVELY.
   ELEMENT ARTERY-1.159 IS DISTORTING EXCESSIVELY.
   ELEMENT ARTERY-1.159 IS DISTORTING EXCESSIVELY.
   ELEMENT ARTERY-1.159 IS DISTORTING EXCESSIVELY.
   ELEMENT ARTERY-1.160 IS DISTORTING EXCESSIVELY.
   ELEMENT ARTERY-1.160 IS DISTORTING EXCESSIVELY.
   ELEMENT ARTERY-1.160 IS DISTORTING EXCESSIVELY.
   ELEMENT ARTERY-1.160 IS DISTORTING EXCESSIVELY.
   ELEMENT ARTERY-1.160 IS DISTORTING EXCESSIVELY.
   ELEMENT ARTERY-1.160 IS DISTORTING EXCESSIVELY.
   ELEMENT ARTERY-1.160 IS DISTORTING EXCESSIVELY.
   ELEMENT ARTERY-1.160 IS DISTORTING EXCESSIVELY.
   ELEMENT ARTERY-1.161 IS DISTORTING EXCESSIVELY.
   ELEMENT ARTERY-1.161 IS DISTORTING EXCESSIVELY.
   ELEMENT ARTERY-1.161 IS DISTORTING EXCESSIVELY.
   ELEMENT ARTERY-1.161 IS DISTORTING EXCESSIVELY.
   ELEMENT ARTERY-1.161 IS DISTORTING EXCESSIVELY.
   ELEMENT ARTERY-1.161 IS DISTORTING EXCESSIVELY.
   ELEMENT ARTERY-1.161 IS DISTORTING EXCESSIVELY.
   ELEMENT ARTERY-1.161 IS DISTORTING EXCESSIVELY.
   ELEMENT ARTERY-1.162 IS DISTORTING EXCESSIVELY.
   ELEMENT ARTERY-1.162 IS DISTORTING EXCESSIVELY.
   ELEMENT ARTERY-1.162 IS DISTORTING EXCESSIVELY.
   ELEMENT ARTERY-1.162 IS DISTORTING EXCESSIVELY.
   ELEMENT ARTERY-1.162 IS DISTORTING EXCESSIVELY.
   ELEMENT ARTERY-1.162 IS DISTORTING EXCESSIVELY.
   ELEMENT ARTERY-1.162 IS DISTORTING EXCESSIVELY.
   ELEMENT ARTERY-1.162 IS DISTORTING EXCESSIVELY.
   ELEMENT ARTERY-1.163 IS DISTORTING EXCESSIVELY.
   ELEMENT ARTERY-1.163 IS DISTORTING EXCESSIVELY.
   ELEMENT ARTERY-1.163 IS DISTORTING EXCESSIVELY.
   ELEMENT ARTERY-1.163 IS DISTORTING EXCESSIVELY.
   ELEMENT ARTERY-1.163 IS DISTORTING EXCESSIVELY.
   ELEMENT ARTERY-1.163 IS DISTORTING EXCESSIVELY.
   ELEMENT ARTERY-1.163 IS DISTORTING EXCESSIVELY.
   ELEMENT ARTERY-1.163 IS DISTORTING EXCESSIVELY.
   ELEMENT ARTERY-1.164 IS DISTORTING EXCESSIVELY.
   ELEMENT ARTERY-1.164 IS DISTORTING EXCESSIVELY.
   ELEMENT ARTERY-1.164 IS DISTORTING EXCESSIVELY.
   ELEMENT ARTERY-1.164 IS DISTORTING EXCESSIVELY.
   ELEMENT ARTERY-1.164 IS DISTORTING EXCESSIVELY.
   ELEMENT ARTERY-1.164 IS DISTORTING EXCESSIVELY.
   ELEMENT ARTERY-1.164 IS DISTORTING EXCESSIVELY.
   ELEMENT ARTERY-1.164 IS DISTORTING EXCESSIVELY.
   ELEMENT ARTERY-1.165 IS DISTORTING EXCESSIVELY.
   ELEMENT ARTERY-1.165 IS DISTORTING EXCESSIVELY.
   ELEMENT ARTERY-1.165 IS DISTORTING EXCESSIVELY.
   ELEMENT ARTERY-1.165 IS DISTORTING EXCESSIVELY.
   ELEMENT ARTERY-1.165 IS DISTORTING EXCESSIVELY.
   ELEMENT ARTERY-1.165 IS DISTORTING EXCESSIVELY.
   ELEMENT ARTERY-1.165 IS DISTORTING EXCESSIVELY.
   ELEMENT ARTERY-1.165 IS DISTORTING EXCESSIVELY.
   ELEMENT ARTERY-1.166 IS DISTORTING EXCESSIVELY.
   ELEMENT ARTERY-1.166 IS DISTORTING EXCESSIVELY.
   ELEMENT ARTERY-1.166 IS DISTORTING EXCESSIVELY.
   ELEMENT ARTERY-1.166 IS DISTORTING EXCESSIVELY.
   ELEMENT ARTERY-1.166 IS DISTORTING EXCESSIVELY.
   ELEMENT ARTERY-1.166 IS DISTORTING EXCESSIVELY.
   ELEMENT ARTERY-1.166 IS DISTORTING EXCESSIVELY.
   ELEMENT ARTERY-1.166 IS DISTORTING EXCESSIVELY.
   ELEMENT ARTERY-1.167 IS DISTORTING EXCESSIVELY.
   ELEMENT ARTERY-1.167 IS DISTORTING EXCESSIVELY.
   ELEMENT ARTERY-1.167 IS DISTORTING EXCESSIVELY.
   ELEMENT ARTERY-1.167 IS DISTORTING EXCESSIVELY.
   ELEMENT ARTERY-1.167 IS DISTORTING EXCESSIVELY.
   ELEMENT ARTERY-1.167 IS DISTORTING EXCESSIVELY.
   ELEMENT ARTERY-1.167 IS DISTORTING EXCESSIVELY.
   ELEMENT ARTERY-1.167 IS DISTORTING EXCESSIVELY.
   ELEMENT ARTERY-1.168 IS DISTORTING EXCESSIVELY.
   ELEMENT ARTERY-1.168 IS DISTORTING EXCESSIVELY.
   ELEMENT ARTERY-1.168 IS DISTORTING EXCESSIVELY.
   ELEMENT ARTERY-1.168 IS DISTORTING EXCESSIVELY.
   ELEMENT ARTERY-1.168 IS DISTORTING EXCESSIVELY.
   ELEMENT ARTERY-1.168 IS DISTORTING EXCESSIVELY.
   ELEMENT ARTERY-1.168 IS DISTORTING EXCESSIVELY.
   ELEMENT ARTERY-1.168 IS DISTORTING EXCESSIVELY.
   ELEMENT ARTERY-1.169 IS DISTORTING EXCESSIVELY.
   ELEMENT ARTERY-1.169 IS DISTORTING EXCESSIVELY.
   ELEMENT ARTERY-1.169 IS DISTORTING EXCESSIVELY.
   ELEMENT ARTERY-1.169 IS DISTORTING EXCESSIVELY.
   ELEMENT ARTERY-1.169 IS DISTORTING EXCESSIVELY.
   ELEMENT ARTERY-1.169 IS DISTORTING EXCESSIVELY.
   ELEMENT ARTERY-1.169 IS DISTORTING EXCESSIVELY.
   ELEMENT ARTERY-1.169 IS DISTORTING EXCESSIVELY.
   ELEMENT ARTERY-1.170 IS DISTORTING EXCESSIVELY.
   ELEMENT ARTERY-1.170 IS DISTORTING EXCESSIVELY.
   ELEMENT ARTERY-1.170 IS DISTORTING EXCESSIVELY.
   ELEMENT ARTERY-1.170 IS DISTORTING EXCESSIVELY.
   ELEMENT ARTERY-1.170 IS DISTORTING EXCESSIVELY.
   ELEMENT ARTERY-1.170 IS DISTORTING EXCESSIVELY.
   ELEMENT ARTERY-1.170 IS DISTORTING EXCESSIVELY.
   ELEMENT ARTERY-1.170 IS DISTORTING EXCESSIVELY.
   ELEMENT ARTERY-1.171 IS DISTORTING EXCESSIVELY.
   ELEMENT ARTERY-1.171 IS DISTORTING EXCESSIVELY.
   ELEMENT ARTERY-1.171 IS DISTORTING EXCESSIVELY.
   ELEMENT ARTERY-1.171 IS DISTORTING EXCESSIVELY.
   ELEMENT ARTERY-1.171 IS DISTORTING EXCESSIVELY.
   ELEMENT ARTERY-1.171 IS DISTORTING EXCESSIVELY.
   ELEMENT ARTERY-1.171 IS DISTORTING EXCESSIVELY.
   ELEMENT ARTERY-1.171 IS DISTORTING EXCESSIVELY.
   ELEMENT ARTERY-1.172 IS DISTORTING EXCESSIVELY.
   ELEMENT ARTERY-1.172 IS DISTORTING EXCESSIVELY.
   ELEMENT ARTERY-1.172 IS DISTORTING EXCESSIVELY.
   ELEMENT ARTERY-1.172 IS DISTORTING EXCESSIVELY.
   ELEMENT ARTERY-1.172 IS DISTORTING EXCESSIVELY.
   ELEMENT ARTERY-1.172 IS DISTORTING EXCESSIVELY.
   ELEMENT ARTERY-1.172 IS DISTORTING EXCESSIVELY.
   ELEMENT ARTERY-1.172 IS DISTORTING EXCESSIVELY.
   ELEMENT ARTERY-1.173 IS DISTORTING EXCESSIVELY.
   ELEMENT ARTERY-1.173 IS DISTORTING EXCESSIVELY.
   ELEMENT ARTERY-1.173 IS DISTORTING EXCESSIVELY.
   ELEMENT ARTERY-1.173 IS DISTORTING EXCESSIVELY.
   ELEMENT ARTERY-1.173 IS DISTORTING EXCESSIVELY.
   ELEMENT ARTERY-1.173 IS DISTORTING EXCESSIVELY.
   ELEMENT ARTERY-1.173 IS DISTORTING EXCESSIVELY.
   ELEMENT ARTERY-1.173 IS DISTORTING EXCESSIVELY.
   ELEMENT ARTERY-1.174 IS DISTORTING EXCESSIVELY.
   ELEMENT ARTERY-1.174 IS DISTORTING EXCESSIVELY.
   ELEMENT ARTERY-1.174 IS DISTORTING EXCESSIVELY.
   ELEMENT ARTERY-1.174 IS DISTORTING EXCESSIVELY.
   ELEMENT ARTERY-1.174 IS DISTORTING EXCESSIVELY.
   ELEMENT ARTERY-1.174 IS DISTORTING EXCESSIVELY.
   ELEMENT ARTERY-1.174 IS DISTORTING EXCESSIVELY.
   ELEMENT ARTERY-1.174 IS DISTORTING EXCESSIVELY.
   ELEMENT ARTERY-1.175 IS DISTORTING EXCESSIVELY.
   ELEMENT ARTERY-1.175 IS DISTORTING EXCESSIVELY.
   ELEMENT ARTERY-1.175 IS DISTORTING EXCESSIVELY.
   ELEMENT ARTERY-1.175 IS DISTORTING EXCESSIVELY.
   ELEMENT ARTERY-1.175 IS DISTORTING EXCESSIVELY.
   ELEMENT ARTERY-1.175 IS DISTORTING EXCESSIVELY.
   ELEMENT ARTERY-1.175 IS DISTORTING EXCESSIVELY.
   ELEMENT ARTERY-1.175 IS DISTORTING EXCESSIVELY.
   ELEMENT ARTERY-1.176 IS DISTORTING EXCESSIVELY.
   ELEMENT ARTERY-1.176 IS DISTORTING EXCESSIVELY.
   ELEMENT ARTERY-1.176 IS DISTORTING EXCESSIVELY.
   ELEMENT ARTERY-1.176 IS DISTORTING EXCESSIVELY.
   ELEMENT ARTERY-1.176 IS DISTORTING EXCESSIVELY.
   ELEMENT ARTERY-1.176 IS DISTORTING EXCESSIVELY.
   ELEMENT ARTERY-1.176 IS DISTORTING EXCESSIVELY.
   ELEMENT ARTERY-1.176 IS DISTORTING EXCESSIVELY.
   ELEMENT ARTERY-1.177 IS DISTORTING EXCESSIVELY.
   ELEMENT ARTERY-1.177 IS DISTORTING EXCESSIVELY.
   ELEMENT ARTERY-1.177 IS DISTORTING EXCESSIVELY.
   ELEMENT ARTERY-1.177 IS DISTORTING EXCESSIVELY.
   ELEMENT ARTERY-1.177 IS DISTORTING EXCESSIVELY.
   ELEMENT ARTERY-1.177 IS DISTORTING EXCESSIVELY.
   ELEMENT ARTERY-1.177 IS DISTORTING EXCESSIVELY.
   ELEMENT ARTERY-1.177 IS DISTORTING EXCESSIVELY.
   ELEMENT ARTERY-1.178 IS DISTORTING EXCESSIVELY.
   ELEMENT ARTERY-1.178 IS DISTORTING EXCESSIVELY.
   ELEMENT ARTERY-1.178 IS DISTORTING EXCESSIVELY.
   ELEMENT ARTERY-1.178 IS DISTORTING EXCESSIVELY.
   ELEMENT ARTERY-1.178 IS DISTORTING EXCESSIVELY.
   ELEMENT ARTERY-1.178 IS DISTORTING EXCESSIVELY.
   ELEMENT ARTERY-1.178 IS DISTORTING EXCESSIVELY.
   ELEMENT ARTERY-1.178 IS DISTORTING EXCESSIVELY.
   ELEMENT ARTERY-1.179 IS DISTORTING EXCESSIVELY.
   ELEMENT ARTERY-1.179 IS DISTORTING EXCESSIVELY.
   ELEMENT ARTERY-1.179 IS DISTORTING EXCESSIVELY.
   ELEMENT ARTERY-1.179 IS DISTORTING EXCESSIVELY.
   ELEMENT ARTERY-1.179 IS DISTORTING EXCESSIVELY.
   ELEMENT ARTERY-1.179 IS DISTORTING EXCESSIVELY.
   ELEMENT ARTERY-1.179 IS DISTORTING EXCESSIVELY.
   ELEMENT ARTERY-1.179 IS DISTORTING EXCESSIVELY.
   ELEMENT ARTERY-1.180 IS DISTORTING EXCESSIVELY.
   ELEMENT ARTERY-1.180 IS DISTORTING EXCESSIVELY.
   ELEMENT ARTERY-1.180 IS DISTORTING EXCESSIVELY.
   ELEMENT ARTERY-1.180 IS DISTORTING EXCESSIVELY.
   ELEMENT ARTERY-1.180 IS DISTORTING EXCESSIVELY.
   ELEMENT ARTERY-1.180 IS DISTORTING EXCESSIVELY.
   ELEMENT ARTERY-1.180 IS DISTORTING EXCESSIVELY.
   ELEMENT ARTERY-1.180 IS DISTORTING EXCESSIVELY.
   ELEMENT ARTERY-1.181 IS DISTORTING EXCESSIVELY.
   ELEMENT ARTERY-1.181 IS DISTORTING EXCESSIVELY.
   ELEMENT ARTERY-1.181 IS DISTORTING EXCESSIVELY.
   ELEMENT ARTERY-1.181 IS DISTORTING EXCESSIVELY.
   ELEMENT ARTERY-1.181 IS DISTORTING EXCESSIVELY.
   ELEMENT ARTERY-1.181 IS DISTORTING EXCESSIVELY.
   ELEMENT ARTERY-1.181 IS DISTORTING EXCESSIVELY.
   ELEMENT ARTERY-1.181 IS DISTORTING EXCESSIVELY.
   ELEMENT ARTERY-1.182 IS DISTORTING EXCESSIVELY.
   ELEMENT ARTERY-1.182 IS DISTORTING EXCESSIVELY.
   ELEMENT ARTERY-1.182 IS DISTORTING EXCESSIVELY.
   ELEMENT ARTERY-1.182 IS DISTORTING EXCESSIVELY.
   ELEMENT ARTERY-1.182 IS DISTORTING EXCESSIVELY.
   ELEMENT ARTERY-1.182 IS DISTORTING EXCESSIVELY.
   ELEMENT ARTERY-1.182 IS DISTORTING EXCESSIVELY.
   ELEMENT ARTERY-1.182 IS DISTORTING EXCESSIVELY.
   ELEMENT ARTERY-1.183 IS DISTORTING EXCESSIVELY.
   ELEMENT ARTERY-1.183 IS DISTORTING EXCESSIVELY.
   ELEMENT ARTERY-1.183 IS DISTORTING EXCESSIVELY.
   ELEMENT ARTERY-1.183 IS DISTORTING EXCESSIVELY.
   ELEMENT ARTERY-1.183 IS DISTORTING EXCESSIVELY.
   ELEMENT ARTERY-1.183 IS DISTORTING EXCESSIVELY.
   ELEMENT ARTERY-1.183 IS DISTORTING EXCESSIVELY.
   ELEMENT ARTERY-1.183 IS DISTORTING EXCESSIVELY.
   ELEMENT ARTERY-1.184 IS DISTORTING EXCESSIVELY.
   ELEMENT ARTERY-1.184 IS DISTORTING EXCESSIVELY.
   ELEMENT ARTERY-1.184 IS DISTORTING EXCESSIVELY.
   ELEMENT ARTERY-1.184 IS DISTORTING EXCESSIVELY.
   ELEMENT ARTERY-1.184 IS DISTORTING EXCESSIVELY.
   ELEMENT ARTERY-1.184 IS DISTORTING EXCESSIVELY.
   ELEMENT ARTERY-1.184 IS DISTORTING EXCESSIVELY.
   ELEMENT ARTERY-1.184 IS DISTORTING EXCESSIVELY.
   ELEMENT ARTERY-1.185 IS DISTORTING EXCESSIVELY.
[...]
   INSTANCE: ARTERY-1                                                                        
 LARGEST INCREMENT OF DISP.         7.700E-05   AT NODE        728   DOF  1
   INSTANCE: ARTERY-1                                                                        
 LARGEST CORRECTION TO DISP.       -1.118E-05   AT NODE        677   DOF  2
   INSTANCE: ARTERY-1                                                                        
          FORCE     EQUILIBRIUM NOT ACHIEVED WITHIN TOLERANCE.

  NUMBER OF EQUATIONS =     2184     NUMBER OF FLOATING PT. OPERATIONS =  4.99E+07

     CHECK POINT   START OF SOLVER    

     CHECK POINT  END OF SOLVER       

       ELAPSED USER TIME (SEC)      =  0.10000    
       ELAPSED SYSTEM TIME (SEC)    =   0.0000    
       ELAPSED TOTAL CPU TIME (SEC) =  0.10000    
       ELAPSED WALLCLOCK TIME (SEC) =          0
 

 ***WARNING: THE SYSTEM MATRIX HAS 22 NEGATIVE EIGENVALUES.
             EXPLANATIONS ARE SUGGESTED AFTER THE FIRST OCCURRENCE OF THIS MESSAGE.

               CONVERGENCE CHECKS FOR EQUILIBRIUM ITERATION     4


 AVERAGE FORCE                      6.778E-06   TIME AVG. FORCE       3.277E-06
 LARGEST RESIDUAL FORCE            -2.026E-04   AT NODE        678   DOF  2
   INSTANCE: ARTERY-1                                                                        
 LARGEST INCREMENT OF DISP.         6.456E-05   AT NODE        650   DOF  1
   INSTANCE: ARTERY-1                                                                        
 LARGEST CORRECTION TO DISP.       -1.244E-05   AT NODE        703   DOF  2
   INSTANCE: ARTERY-1                                                                        
          FORCE     EQUILIBRIUM NOT ACHIEVED WITHIN TOLERANCE.

  NUMBER OF EQUATIONS =     2184     NUMBER OF FLOATING PT. OPERATIONS =  4.99E+07

     CHECK POINT   START OF SOLVER    

     CHECK POINT  END OF SOLVER       

       ELAPSED USER TIME (SEC)      =  0.10000    
       ELAPSED SYSTEM TIME (SEC)    =   0.0000    
       ELAPSED TOTAL CPU TIME (SEC) =  0.10000    
       ELAPSED WALLCLOCK TIME (SEC) =          0
 

 ***WARNING: THE SYSTEM MATRIX HAS 17 NEGATIVE EIGENVALUES.
             EXPLANATIONS ARE SUGGESTED AFTER THE FIRST OCCURRENCE OF THIS MESSAGE.

               CONVERGENCE CHECKS FOR EQUILIBRIUM ITERATION     5


 AVERAGE FORCE                      4.016E-06   TIME AVG. FORCE       2.357E-06
 LARGEST RESIDUAL FORCE            -6.427E-05   AT NODE        678   DOF  2
   INSTANCE: ARTERY-1                                                                        
 LARGEST INCREMENT OF DISP.         5.230E-05   AT NODE        728   DOF  1
   INSTANCE: ARTERY-1                                                                        
 LARGEST CORRECTION TO DISP.       -1.226E-05   AT NODE        625   DOF  2
   INSTANCE: ARTERY-1                                                                        
          FORCE     EQUILIBRIUM NOT ACHIEVED WITHIN TOLERANCE.

  NUMBER OF EQUATIONS =     2184     NUMBER OF FLOATING PT. OPERATIONS =  4.99E+07

     CHECK POINT   START OF SOLVER    

     CHECK POINT  END OF SOLVER       

       ELAPSED USER TIME (SEC)      =   0.0000    
       ELAPSED SYSTEM TIME (SEC)    =   0.0000    
       ELAPSED TOTAL CPU TIME (SEC) =   0.0000    
       ELAPSED WALLCLOCK TIME (SEC) =          0

               CONVERGENCE CHECKS FOR EQUILIBRIUM ITERATION     6


 AVERAGE FORCE                      3.290E-06   TIME AVG. FORCE       2.114E-06
 LARGEST RESIDUAL FORCE            -1.386E-05   AT NODE        678   DOF  2
   INSTANCE: ARTERY-1                                                                        
 LARGEST INCREMENT OF DISP.         4.273E-05   AT NODE        625   DOF  2
   INSTANCE: ARTERY-1                                                                        
 LARGEST CORRECTION TO DISP.       -9.568E-06   AT NODE        728   DOF  1
   INSTANCE: ARTERY-1                                                                        
          FORCE     EQUILIBRIUM NOT ACHIEVED WITHIN TOLERANCE.

  NUMBER OF EQUATIONS =     2184     NUMBER OF FLOATING PT. OPERATIONS =  4.99E+07

     CHECK POINT   START OF SOLVER    

     CHECK POINT  END OF SOLVER       

       ELAPSED USER TIME (SEC)      =   0.0000    
       ELAPSED SYSTEM TIME (SEC)    =   0.0000    
       ELAPSED TOTAL CPU TIME (SEC) =   0.0000    
       ELAPSED WALLCLOCK TIME (SEC) =          0

               CONVERGENCE CHECKS FOR EQUILIBRIUM ITERATION     7


 AVERAGE FORCE                      3.202E-06   TIME AVG. FORCE       2.085E-06
 LARGEST RESIDUAL FORCE            -1.221E-06   AT NODE        701   DOF  1
   INSTANCE: ARTERY-1                                                                        
 LARGEST INCREMENT OF DISP.         3.877E-05   AT NODE        728   DOF  1
   INSTANCE: ARTERY-1                                                                        
 LARGEST CORRECTION TO DISP.       -3.963E-06   AT NODE        625   DOF  2
   INSTANCE: ARTERY-1                                                                        
          FORCE     EQUILIBRIUM NOT ACHIEVED WITHIN TOLERANCE.

  NUMBER OF EQUATIONS =     2184     NUMBER OF FLOATING PT. OPERATIONS =  4.99E+07

     CHECK POINT   START OF SOLVER    

     CHECK POINT  END OF SOLVER       

       ELAPSED USER TIME (SEC)      =   0.0000    
       ELAPSED SYSTEM TIME (SEC)    =   0.0000    
       ELAPSED TOTAL CPU TIME (SEC) =   0.0000    
       ELAPSED WALLCLOCK TIME (SEC) =          0

               CONVERGENCE CHECKS FOR EQUILIBRIUM ITERATION     8


 AVERAGE FORCE                      3.197E-06   TIME AVG. FORCE       2.083E-06
 LARGEST RESIDUAL FORCE            -1.346E-08   AT NODE        678   DOF  2
   INSTANCE: ARTERY-1                                                                        
 LARGEST INCREMENT OF DISP.         3.829E-05   AT NODE        625   DOF  2
   INSTANCE: ARTERY-1                                                                        
 LARGEST CORRECTION TO DISP.       -4.727E-07   AT NODE        728   DOF  1
   INSTANCE: ARTERY-1                                                                        
          FORCE     EQUILIBRIUM NOT ACHIEVED WITHIN TOLERANCE.

  NUMBER OF EQUATIONS =     2184     NUMBER OF FLOATING PT. OPERATIONS =  4.99E+07

     CHECK POINT   START OF SOLVER    

     CHECK POINT  END OF SOLVER       

       ELAPSED USER TIME (SEC)      =   0.0000    
       ELAPSED SYSTEM TIME (SEC)    =   0.0000    
       ELAPSED TOTAL CPU TIME (SEC) =   0.0000    
       ELAPSED WALLCLOCK TIME (SEC) =          0

               CONVERGENCE CHECKS FOR EQUILIBRIUM ITERATION     9


 AVERAGE FORCE                      3.200E-06   TIME AVG. FORCE       2.084E-06
 LARGEST RESIDUAL FORCE            -1.827E-12   AT NODE        652   DOF  2
   INSTANCE: ARTERY-1                                                                        
 LARGEST INCREMENT OF DISP.         3.829E-05   AT NODE        702   DOF  1
   INSTANCE: ARTERY-1                                                                        
 LARGEST CORRECTION TO DISP.       -5.685E-09   AT NODE        625   DOF  2
   INSTANCE: ARTERY-1                                                                        
          THE FORCE     EQUILIBRIUM EQUATIONS HAVE CONVERGED

 ITERATION SUMMARY FOR THE INCREMENT:   9 TOTAL ITERATIONS, OF WHICH
   0 ARE SEVERE DISCONTINUITY ITERATIONS AND  9 ARE EQUILIBRIUM ITERATIONS.

 TIME INCREMENT COMPLETED  0.125    ,  FRACTION OF STEP COMPLETED  0.625    
 STEP TIME COMPLETED       0.625    ,  TOTAL TIME COMPLETED        0.625    


  INCREMENT     4 STARTS. ATTEMPT NUMBER  1, TIME INCREMENT  0.125    

  NUMBER OF EQUATIONS =     2184     NUMBER OF FLOATING PT. OPERATIONS =  4.99E+07

     CHECK POINT   START OF SOLVER    

     CHECK POINT  END OF SOLVER       

       ELAPSED USER TIME (SEC)      =   0.0000    
       ELAPSED SYSTEM TIME (SEC)    =   0.0000    
       ELAPSED TOTAL CPU TIME (SEC) =   0.0000    
       ELAPSED WALLCLOCK TIME (SEC) =          0
 

 ***WARNING: THE SYSTEM MATRIX HAS 4 NEGATIVE EIGENVALUES.
             EXPLANATIONS ARE SUGGESTED AFTER THE FIRST OCCURRENCE OF THIS MESSAGE.

               CONVERGENCE CHECKS FOR EQUILIBRIUM ITERATION     1


 AVERAGE FORCE                      4.241E-06   TIME AVG. FORCE       2.624E-06
 LARGEST RESIDUAL FORCE            -3.664E-05   AT NODE        701   DOF  1
   INSTANCE: ARTERY-1                                                                        
 LARGEST INCREMENT OF DISP.         2.678E-05   AT NODE        728   DOF  1
   INSTANCE: ARTERY-1                                                                        
 LARGEST CORRECTION TO DISP.       -1.151E-05   AT NODE        650   DOF  1
   INSTANCE: ARTERY-1                                                                        
          FORCE     EQUILIBRIUM NOT ACHIEVED WITHIN TOLERANCE.

  NUMBER OF EQUATIONS =     2184     NUMBER OF FLOATING PT. OPERATIONS =  4.99E+07

     CHECK POINT   START OF SOLVER    

     CHECK POINT  END OF SOLVER       

       ELAPSED USER TIME (SEC)      =   0.0000    
       ELAPSED SYSTEM TIME (SEC)    =   0.0000    
       ELAPSED TOTAL CPU TIME (SEC) =   0.0000    
       ELAPSED WALLCLOCK TIME (SEC) =          0

               CONVERGENCE CHECKS FOR EQUILIBRIUM ITERATION     2


 AVERAGE FORCE                      3.941E-06   TIME AVG. FORCE       2.548E-06
 LARGEST RESIDUAL FORCE            -5.761E-06   AT NODE        701   DOF  1
   INSTANCE: ARTERY-1                                                                        
 LARGEST INCREMENT OF DISP.         2.039E-05   AT NODE        650   DOF  1
   INSTANCE: ARTERY-1                                                                        
 LARGEST CORRECTION TO DISP.       -6.394E-06   AT NODE        625   DOF  2
   INSTANCE: ARTERY-1                                                                        
          FORCE     EQUILIBRIUM NOT ACHIEVED WITHIN TOLERANCE.

  NUMBER OF EQUATIONS =     2184     NUMBER OF FLOATING PT. OPERATIONS =  4.99E+07

     CHECK POINT   START OF SOLVER    

     CHECK POINT  END OF SOLVER       

       ELAPSED USER TIME (SEC)      =   0.0000    
       ELAPSED SYSTEM TIME (SEC)    =   0.0000    
       ELAPSED TOTAL CPU TIME (SEC) =   0.0000    
       ELAPSED WALLCLOCK TIME (SEC) =          0

               CONVERGENCE CHECKS FOR EQUILIBRIUM ITERATION     3


 AVERAGE FORCE                      3.909E-06   TIME AVG. FORCE       2.540E-06
 LARGEST RESIDUAL FORCE            -1.973E-07   AT NODE        701   DOF  1
   INSTANCE: ARTERY-1                                                                        
 LARGEST INCREMENT OF DISP.         1.908E-05   AT NODE        728   DOF  1
   INSTANCE: ARTERY-1                                                                        
 LARGEST CORRECTION TO DISP.       -1.309E-06   AT NODE        650   DOF  1
   INSTANCE: ARTERY-1                                                                        
          FORCE     EQUILIBRIUM NOT ACHIEVED WITHIN TOLERANCE.

  NUMBER OF EQUATIONS =     2184     NUMBER OF FLOATING PT. OPERATIONS =  4.99E+07

     CHECK POINT   START OF SOLVER    

     CHECK POINT  END OF SOLVER       

       ELAPSED USER TIME (SEC)      =   0.0000    
       ELAPSED SYSTEM TIME (SEC)    =   0.0000    
       ELAPSED TOTAL CPU TIME (SEC) =   0.0000    
       ELAPSED WALLCLOCK TIME (SEC) =          0

               CONVERGENCE CHECKS FOR EQUILIBRIUM ITERATION     4


 AVERAGE FORCE                      3.911E-06   TIME AVG. FORCE       2.541E-06
 LARGEST RESIDUAL FORCE            -2.450E-10   AT NODE        701   DOF  1
   INSTANCE: ARTERY-1                                                                        
 LARGEST INCREMENT OF DISP.         1.903E-05   AT NODE        650   DOF  1
   INSTANCE: ARTERY-1                                                                        
 LARGEST CORRECTION TO DISP.       -4.679E-08   AT NODE        728   DOF  1
   INSTANCE: ARTERY-1                                                                        
          THE FORCE     EQUILIBRIUM EQUATIONS HAVE CONVERGED

 ITERATION SUMMARY FOR THE INCREMENT:   4 TOTAL ITERATIONS, OF WHICH
   0 ARE SEVERE DISCONTINUITY ITERATIONS AND  4 ARE EQUILIBRIUM ITERATIONS.

 TIME INCREMENT COMPLETED  0.125    ,  FRACTION OF STEP COMPLETED  0.750    
 STEP TIME COMPLETED       0.750    ,  TOTAL TIME COMPLETED        0.750    


  INCREMENT     5 STARTS. ATTEMPT NUMBER  1, TIME INCREMENT  0.125    

  NUMBER OF EQUATIONS =     2184     NUMBER OF FLOATING PT. OPERATIONS =  4.99E+07

     CHECK POINT   START OF SOLVER    

     CHECK POINT  END OF SOLVER       

       ELAPSED USER TIME (SEC)      =  0.10000    
       ELAPSED SYSTEM TIME (SEC)    =   0.0000    
       ELAPSED TOTAL CPU TIME (SEC) =  0.10000    
       ELAPSED WALLCLOCK TIME (SEC) =          0

               CONVERGENCE CHECKS FOR EQUILIBRIUM ITERATION     1


 AVERAGE FORCE                      4.638E-06   TIME AVG. FORCE       2.961E-06
 LARGEST RESIDUAL FORCE            -3.984E-06   AT NODE        701   DOF  1
   INSTANCE: ARTERY-1                                                                        
 LARGEST INCREMENT OF DISP.         1.412E-05   AT NODE        703   DOF  2
   INSTANCE: ARTERY-1                                                                        
 LARGEST CORRECTION TO DISP.       -4.905E-06   AT NODE        702   DOF  1
   INSTANCE: ARTERY-1                                                                        
          FORCE     EQUILIBRIUM NOT ACHIEVED WITHIN TOLERANCE.

  NUMBER OF EQUATIONS =     2184     NUMBER OF FLOATING PT. OPERATIONS =  4.99E+07

     CHECK POINT   START OF SOLVER    

     CHECK POINT  END OF SOLVER       

       ELAPSED USER TIME (SEC)      =   0.0000    
       ELAPSED SYSTEM TIME (SEC)    =   0.0000    
       ELAPSED TOTAL CPU TIME (SEC) =   0.0000    
       ELAPSED WALLCLOCK TIME (SEC) =          0

               CONVERGENCE CHECKS FOR EQUILIBRIUM ITERATION     2


 AVERAGE FORCE                      4.615E-06   TIME AVG. FORCE       2.956E-06
 LARGEST RESIDUAL FORCE            -8.342E-08   AT NODE        678   DOF  2
   INSTANCE: ARTERY-1                                                                        
 LARGEST INCREMENT OF DISP.         1.337E-05   AT NODE        546   DOF  1
   INSTANCE: ARTERY-1                                                                        
 LARGEST CORRECTION TO DISP.       -7.624E-07   AT NODE        703   DOF  2
   INSTANCE: ARTERY-1                                                                        
          FORCE     EQUILIBRIUM NOT ACHIEVED WITHIN TOLERANCE.

  NUMBER OF EQUATIONS =     2184     NUMBER OF FLOATING PT. OPERATIONS =  4.99E+07

     CHECK POINT   START OF SOLVER    

     CHECK POINT  END OF SOLVER       

       ELAPSED USER TIME (SEC)      =   0.0000    
       ELAPSED SYSTEM TIME (SEC)    =   0.0000    
       ELAPSED TOTAL CPU TIME (SEC) =   0.0000    
       ELAPSED WALLCLOCK TIME (SEC) =          0

               CONVERGENCE CHECKS FOR EQUILIBRIUM ITERATION     3


 AVERAGE FORCE                      4.618E-06   TIME AVG. FORCE       2.957E-06
 LARGEST RESIDUAL FORCE            -3.518E-11   AT NODE        675   DOF  1
   INSTANCE: ARTERY-1                                                                        
 LARGEST INCREMENT OF DISP.         1.335E-05   AT NODE        547   DOF  2
   INSTANCE: ARTERY-1                                                                        
 LARGEST CORRECTION TO DISP.       -1.511E-08   AT NODE        728   DOF  1
   INSTANCE: ARTERY-1                                                                        
          THE FORCE     EQUILIBRIUM EQUATIONS HAVE CONVERGED

 ITERATION SUMMARY FOR THE INCREMENT:   3 TOTAL ITERATIONS, OF WHICH
   0 ARE SEVERE DISCONTINUITY ITERATIONS AND  3 ARE EQUILIBRIUM ITERATIONS.

 TIME INCREMENT COMPLETED  0.125    ,  FRACTION OF STEP COMPLETED  0.875    
 STEP TIME COMPLETED       0.875    ,  TOTAL TIME COMPLETED        0.875    


  INCREMENT     6 STARTS. ATTEMPT NUMBER  1, TIME INCREMENT  0.125    

  NUMBER OF EQUATIONS =     2184     NUMBER OF FLOATING PT. OPERATIONS =  4.99E+07

     CHECK POINT   START OF SOLVER    

     CHECK POINT  END OF SOLVER       

       ELAPSED USER TIME (SEC)      =   0.0000    
       ELAPSED SYSTEM TIME (SEC)    =   0.0000    
       ELAPSED TOTAL CPU TIME (SEC) =   0.0000    
       ELAPSED WALLCLOCK TIME (SEC) =          1

               CONVERGENCE CHECKS FOR EQUILIBRIUM ITERATION     1


 AVERAGE FORCE                      5.330E-06   TIME AVG. FORCE       3.352E-06
 LARGEST RESIDUAL FORCE            -1.061E-06   AT NODE        701   DOF  1
   INSTANCE: ARTERY-1                                                                        
 LARGEST INCREMENT OF DISP.         1.083E-05   AT NODE        599   DOF  2
   INSTANCE: ARTERY-1                                                                        
 LARGEST CORRECTION TO DISP.       -2.547E-06   AT NODE        651   DOF  2
   INSTANCE: ARTERY-1                                                                        
          FORCE     EQUILIBRIUM NOT ACHIEVED WITHIN TOLERANCE.

  NUMBER OF EQUATIONS =     2184     NUMBER OF FLOATING PT. OPERATIONS =  4.99E+07

     CHECK POINT   START OF SOLVER    

     CHECK POINT  END OF SOLVER       

       ELAPSED USER TIME (SEC)      =   0.0000    
       ELAPSED SYSTEM TIME (SEC)    =   0.0000    
       ELAPSED TOTAL CPU TIME (SEC) =   0.0000    
       ELAPSED WALLCLOCK TIME (SEC) =          0

               CONVERGENCE CHECKS FOR EQUILIBRIUM ITERATION     2


 AVERAGE FORCE                      5.333E-06   TIME AVG. FORCE       3.353E-06
 LARGEST RESIDUAL FORCE            -5.310E-09   AT NODE        678   DOF  2
   INSTANCE: ARTERY-1                                                                        
 LARGEST INCREMENT OF DISP.         1.065E-05   AT NODE        624   DOF  1
   INSTANCE: ARTERY-1                                                                        
 LARGEST CORRECTION TO DISP.       -1.802E-07   AT NODE        677   DOF  2
   INSTANCE: ARTERY-1                                                                        
 ESTIMATE OF DISP.    CORRECTION   -9.015E-10
 FORCE     EQUILIB. ACCEPTED BASED ON SMALL RESIDUAL AND ESTIMATED CORRECTION

 ITERATION SUMMARY FOR THE INCREMENT:   2 TOTAL ITERATIONS, OF WHICH
   0 ARE SEVERE DISCONTINUITY ITERATIONS AND  2 ARE EQUILIBRIUM ITERATIONS.

 TIME INCREMENT COMPLETED  0.125    ,  FRACTION OF STEP COMPLETED   1.00    
 STEP TIME COMPLETED        1.00    ,  TOTAL TIME COMPLETED         1.00    


          THE ANALYSIS HAS BEEN COMPLETED



     ANALYSIS SUMMARY:
     TOTAL OF          6  INCREMENTS
                       2  CUTBACKS IN AUTOMATIC INCREMENTATION
                      40  ITERATIONS INCLUDING CONTACT ITERATIONS IF PRESENT
                      40  PASSES THROUGH THE EQUATION SOLVER OF WHICH 
                      40  INVOLVE MATRIX DECOMPOSITION, INCLUDING
                       0  DECOMPOSITION(S) OF THE MASS MATRIX
                       1  REORDERING OF EQUATIONS TO MINIMIZE WAVEFRONT
                       0  ADDITIONAL RESIDUAL EVALUATIONS FOR LINE SEARCHES
                       0  ADDITIONAL OPERATOR EVALUATIONS FOR LINE SEARCHES
                       1  WARNING MESSAGES DURING USER INPUT PROCESSING
                      20  WARNING MESSAGES DURING ANALYSIS
                       0  ANALYSIS WARNINGS ARE NUMERICAL PROBLEM MESSAGES
                      19  ANALYSIS WARNINGS ARE NEGATIVE EIGENVALUE MESSAGES
                       0  ERROR MESSAGES



     JOB TIME SUMMARY
       USER TIME (SEC)      =   4.0000    
       SYSTEM TIME (SEC)    =  0.20000    
       TOTAL CPU TIME (SEC) =   4.2000    
       WALLCLOCK TIME (SEC) =          5
