 Abaqus/Standard 6.13-1                  DATE 17-ÎåÔÂ-2015 TIME 14:46:29
 SUMMARY OF JOB INFORMATION:
 STEP  INC ATT SEVERE EQUIL TOTAL  TOTAL      STEP       INC OF       DOF    IF
               DISCON ITERS ITERS  TIME/    TIME/LPF    TIME/LPF    MONITOR RIKS
               ITERS               FREQ
   1     1   1U    0     1     1  0.000      0.000      1.000     
   1     1   2     0     4     4  0.250      0.250      0.2500    
   1     2   1     0     4     4  0.500      0.500      0.2500    
   1     3   1U    0     3     3  0.500      0.500      0.3750    
   1     3   2     0     6     6  0.594      0.594      0.09375   
   1     4   1     0     4     4  0.688      0.688      0.09375   
   1     5   1     0     3     3  0.781      0.781      0.09375   
   1     6   1     0     3     3  0.922      0.922      0.1406    
   1     7   1     0     2     2  1.00       1.00       0.07813   
                          
 THE ANALYSIS HAS COMPLETED SUCCESSFULLY
