1

   Abaqus 6.13-1                                  Date 17-ÎåÔÂ-2015   Time 14:27:11
   For use by  under license from Dassault Systemes or its subsidiary.

                                                                                 
                                                                                 
 STEP    1     INCREMENT     1     STEP TIME    0.00    


                        S T E P       1     S T A T I C   A N A L Y S I S


                                                                                          

          FIXED TIME INCREMENTS
          TIME INCREMENT IS                                    5.000E-02
          TIME PERIOD IS                                        1.00    

     LINEAR EQUATION SOLVER TYPE         DIRECT SPARSE

 CONVERGENCE TOLERANCE PARAMETERS FOR FORCE    
     CRITERION FOR RESIDUAL FORCE     FOR A NONLINEAR PROBLEM          5.000E-03
     CRITERION FOR DISP.    CORRECTION IN A NONLINEAR PROBLEM          1.000E-02
     INITIAL VALUE OF TIME AVERAGE FORCE                               1.000E-02
     AVERAGE FORCE     IS TIME AVERAGE FORCE    
     ALTERNATE CRIT. FOR RESIDUAL FORCE     FOR A NONLINEAR PROBLEM    2.000E-02
     CRITERION FOR ZERO FORCE     RELATIVE TO TIME AVRG. FORCE         1.000E-05
     CRITERION FOR RESIDUAL FORCE     WHEN THERE IS ZERO FLUX          1.000E-05
     CRITERION FOR DISP.    CORRECTION WHEN THERE IS ZERO FLUX         1.000E-03
     CRITERION FOR RESIDUAL FORCE     FOR A LINEAR INCREMENT           1.000E-08
     FIELD CONVERSION RATIO                                             1.00    
     CRITERION FOR ZERO FORCE     REL. TO TIME AVRG. MAX. FORCE        1.000E-05
     CRITERION FOR ZERO DISP.    RELATIVE TO CHARACTERISTIC LENGTH     1.000E-08

     VOLUMETRIC STRAIN COMPATIBILITY TOLERANCE FOR HYBRID SOLIDS       1.000E-05
     AXIAL STRAIN COMPATIBILITY TOLERANCE FOR HYBRID BEAMS             1.000E-05
     TRANS. SHEAR STRAIN COMPATIBILITY TOLERANCE FOR HYBRID BEAMS      1.000E-05
     SOFT CONTACT CONSTRAINT COMPATIBILITY TOLERANCE FOR P>P0          5.000E-03
     SOFT CONTACT CONSTRAINT COMPATIBILITY TOLERANCE FOR P=0.0         0.100    
     CONTACT FORCE ERROR TOLERANCE FOR CONVERT SDI=YES                 1.00    
     DISPLACEMENT COMPATIBILITY TOLERANCE FOR DCOUP ELEMENTS           1.000E-05
     ROTATION COMPATIBILITY TOLERANCE FOR DCOUP ELEMENTS               1.000E-05

 EQUILIBRIUM WILL BE CHECKED FOR SEVERE DISCONTINUITY ITERATIONS

 ITERATION CONTROL PARAMETERS:
     FIRST EQUILIBRIUM ITERATION FOR CONSECUTIVE DIVERGENCE CHECK              4
     EQUILIBRIUM ITERATION AFTER WHICH ALTERNATE RESIDUAL IS USED              9
     MAXIMUM EQUILIBRIUM ITERATIONS ALLOWED                                   16
     MAXIMUM ITERATIONS FOR SEVERE DISCONTINUITIES                            12
     GLOBAL STABILIZATION CONTROL IS NOT USED

          PRINT OF INCREMENT NUMBER, TIME, ETC., EVERY    1  INCREMENTS

     THE MAXIMUM NUMBER OF INCREMENTS IN THIS STEP IS                     100

          LARGE DISPLACEMENT THEORY WILL BE USED

     LINEAR EXTRAPOLATION WILL BE USED

     CHARACTERISTIC ELEMENT LENGTH     1.000E-03

     DETAILS REGARDING ACTUAL SOLUTION WAVEFRONT REQUESTED

     DETAILED OUTPUT OF DIAGNOSTICS TO DATABASE REQUESTED

     PRINT OF INCREMENT NUMBER, TIME, ETC., TO THE MESSAGE FILE EVERY     1  INCREMENTS

     EQUATIONS ARE BEING REORDERED TO MINIMIZE WAVEFRONT

     COLLECTING MODEL CONSTRAINT INFORMATION FOR OVERCONSTRAINT CHECKS

     COLLECTING STEP CONSTRAINT INFORMATION FOR OVERCONSTRAINT CHECKS


  INCREMENT     1 STARTS. ATTEMPT NUMBER  1, TIME INCREMENT  5.000E-02

  NUMBER OF EQUATIONS =       60     NUMBER OF FLOATING PT. OPERATIONS =  7.38E+04

     CHECK POINT   START OF SOLVER    

     CHECK POINT  END OF SOLVER       

       ELAPSED USER TIME (SEC)      =   0.0000    
       ELAPSED SYSTEM TIME (SEC)    =   0.0000    
       ELAPSED TOTAL CPU TIME (SEC) =   0.0000    
       ELAPSED WALLCLOCK TIME (SEC) =          0

               CONVERGENCE CHECKS FOR EQUILIBRIUM ITERATION     1


 AVERAGE FORCE                      1.343E-03   TIME AVG. FORCE       1.343E-03
 LARGEST RESIDUAL FORCE            -6.653E-04   AT NODE         10   DOF  1
   INSTANCE: ELEM1-1                                                                         
 LARGEST INCREMENT OF DISP.        -3.750E-05   AT NODE          1   DOF  2
   INSTANCE: ELEM1-1                                                                         
 LARGEST CORRECTION TO DISP.       -3.750E-05   AT NODE          1   DOF  2
   INSTANCE: ELEM1-1                                                                         
          FORCE     EQUILIBRIUM NOT ACHIEVED WITHIN TOLERANCE.

  NUMBER OF EQUATIONS =       60     NUMBER OF FLOATING PT. OPERATIONS =  7.38E+04

     CHECK POINT   START OF SOLVER    

     CHECK POINT  END OF SOLVER       

       ELAPSED USER TIME (SEC)      =   0.0000    
       ELAPSED SYSTEM TIME (SEC)    =   0.0000    
       ELAPSED TOTAL CPU TIME (SEC) =   0.0000    
       ELAPSED WALLCLOCK TIME (SEC) =          0

               CONVERGENCE CHECKS FOR EQUILIBRIUM ITERATION     2


 AVERAGE FORCE                      1.013E-03   TIME AVG. FORCE       1.013E-03
 LARGEST RESIDUAL FORCE             4.174E-07   AT NODE         19   DOF  3
   INSTANCE: ELEM1-1                                                                         
 LARGEST INCREMENT OF DISP.        -3.750E-05   AT NODE          1   DOF  2
   INSTANCE: ELEM1-1                                                                         
 LARGEST CORRECTION TO DISP.       -5.093E-07   AT NODE          8   DOF  1
   INSTANCE: ELEM1-1                                                                         
          DISP.    CORRECTION TOO LARGE COMPARED TO DISP.    INCREMENT

  NUMBER OF EQUATIONS =       60     NUMBER OF FLOATING PT. OPERATIONS =  7.38E+04

     CHECK POINT   START OF SOLVER    

     CHECK POINT  END OF SOLVER       

       ELAPSED USER TIME (SEC)      =   0.0000    
       ELAPSED SYSTEM TIME (SEC)    =   0.0000    
       ELAPSED TOTAL CPU TIME (SEC) =   0.0000    
       ELAPSED WALLCLOCK TIME (SEC) =          0

               CONVERGENCE CHECKS FOR EQUILIBRIUM ITERATION     3


 AVERAGE FORCE                      1.013E-03   TIME AVG. FORCE       1.013E-03
 LARGEST RESIDUAL FORCE             4.715E-11   AT NODE         10   DOF  1
   INSTANCE: ELEM1-1                                                                         
 LARGEST INCREMENT OF DISP.        -3.750E-05   AT NODE          1   DOF  2
   INSTANCE: ELEM1-1                                                                         
 LARGEST CORRECTION TO DISP.        4.063E-10   AT NODE          8   DOF  1
   INSTANCE: ELEM1-1                                                                         
          THE FORCE     EQUILIBRIUM EQUATIONS HAVE CONVERGED

 ITERATION SUMMARY FOR THE INCREMENT:   3 TOTAL ITERATIONS, OF WHICH
   0 ARE SEVERE DISCONTINUITY ITERATIONS AND  3 ARE EQUILIBRIUM ITERATIONS.

 TIME INCREMENT COMPLETED  5.000E-02,  FRACTION OF STEP COMPLETED  5.000E-02
 STEP TIME COMPLETED       5.000E-02,  TOTAL TIME COMPLETED        5.000E-02


  INCREMENT     2 STARTS. ATTEMPT NUMBER  1, TIME INCREMENT  5.000E-02

  NUMBER OF EQUATIONS =       60     NUMBER OF FLOATING PT. OPERATIONS =  7.38E+04

     CHECK POINT   START OF SOLVER    

     CHECK POINT  END OF SOLVER       

       ELAPSED USER TIME (SEC)      =   0.0000    
       ELAPSED SYSTEM TIME (SEC)    =   0.0000    
       ELAPSED TOTAL CPU TIME (SEC) =   0.0000    
       ELAPSED WALLCLOCK TIME (SEC) =          0

               CONVERGENCE CHECKS FOR EQUILIBRIUM ITERATION     1


 AVERAGE FORCE                      2.643E-03   TIME AVG. FORCE       1.828E-03
 LARGEST RESIDUAL FORCE             3.336E-06   AT NODE         19   DOF  3
   INSTANCE: ELEM1-1                                                                         
 LARGEST INCREMENT OF DISP.        -3.750E-05   AT NODE          1   DOF  2
   INSTANCE: ELEM1-1                                                                         
 LARGEST CORRECTION TO DISP.       -1.087E-06   AT NODE          8   DOF  1
   INSTANCE: ELEM1-1                                                                         
 ESTIMATE OF DISP.    CORRECTION    2.681E-09
 FORCE     EQUILIB. ACCEPTED BASED ON SMALL RESIDUAL AND ESTIMATED CORRECTION

 ITERATION SUMMARY FOR THE INCREMENT:   1 TOTAL ITERATIONS, OF WHICH
   0 ARE SEVERE DISCONTINUITY ITERATIONS AND  1 ARE EQUILIBRIUM ITERATIONS.

 TIME INCREMENT COMPLETED  5.000E-02,  FRACTION OF STEP COMPLETED  0.100    
 STEP TIME COMPLETED       0.100    ,  TOTAL TIME COMPLETED        0.100    


  INCREMENT     3 STARTS. ATTEMPT NUMBER  1, TIME INCREMENT  5.000E-02

  NUMBER OF EQUATIONS =       60     NUMBER OF FLOATING PT. OPERATIONS =  7.38E+04

     CHECK POINT   START OF SOLVER    

     CHECK POINT  END OF SOLVER       

       ELAPSED USER TIME (SEC)      =   0.0000    
       ELAPSED SYSTEM TIME (SEC)    =   0.0000    
       ELAPSED TOTAL CPU TIME (SEC) =   0.0000    
       ELAPSED WALLCLOCK TIME (SEC) =          0

               CONVERGENCE CHECKS FOR EQUILIBRIUM ITERATION     1


 AVERAGE FORCE                      4.145E-03   TIME AVG. FORCE       2.600E-03
 LARGEST RESIDUAL FORCE             3.771E-06   AT NODE         11   DOF  1
   INSTANCE: ELEM1-1                                                                         
 LARGEST INCREMENT OF DISP.        -3.750E-05   AT NODE          1   DOF  2
   INSTANCE: ELEM1-1                                                                         
 LARGEST CORRECTION TO DISP.       -1.190E-06   AT NODE          5   DOF  1
   INSTANCE: ELEM1-1                                                                         
 ESTIMATE OF DISP.    CORRECTION    3.180E-09
 FORCE     EQUILIB. ACCEPTED BASED ON SMALL RESIDUAL AND ESTIMATED CORRECTION

 ITERATION SUMMARY FOR THE INCREMENT:   1 TOTAL ITERATIONS, OF WHICH
   0 ARE SEVERE DISCONTINUITY ITERATIONS AND  1 ARE EQUILIBRIUM ITERATIONS.

 TIME INCREMENT COMPLETED  5.000E-02,  FRACTION OF STEP COMPLETED  0.150    
 STEP TIME COMPLETED       0.150    ,  TOTAL TIME COMPLETED        0.150    


  INCREMENT     4 STARTS. ATTEMPT NUMBER  1, TIME INCREMENT  5.000E-02

  NUMBER OF EQUATIONS =       60     NUMBER OF FLOATING PT. OPERATIONS =  7.38E+04

     CHECK POINT   START OF SOLVER    

     CHECK POINT  END OF SOLVER       

       ELAPSED USER TIME (SEC)      =   0.0000    
       ELAPSED SYSTEM TIME (SEC)    =   0.0000    
       ELAPSED TOTAL CPU TIME (SEC) =   0.0000    
       ELAPSED WALLCLOCK TIME (SEC) =          0

               CONVERGENCE CHECKS FOR EQUILIBRIUM ITERATION     1


 AVERAGE FORCE                      5.797E-03   TIME AVG. FORCE       3.400E-03
 LARGEST RESIDUAL FORCE             4.334E-06   AT NODE         19   DOF  3
   INSTANCE: ELEM1-1                                                                         
 LARGEST INCREMENT OF DISP.        -3.750E-05   AT NODE          1   DOF  2
   INSTANCE: ELEM1-1                                                                         
 LARGEST CORRECTION TO DISP.       -1.317E-06   AT NODE          3   DOF  3
   INSTANCE: ELEM1-1                                                                         
 ESTIMATE OF DISP.    CORRECTION    3.843E-09
 FORCE     EQUILIB. ACCEPTED BASED ON SMALL RESIDUAL AND ESTIMATED CORRECTION

 ITERATION SUMMARY FOR THE INCREMENT:   1 TOTAL ITERATIONS, OF WHICH
   0 ARE SEVERE DISCONTINUITY ITERATIONS AND  1 ARE EQUILIBRIUM ITERATIONS.

 TIME INCREMENT COMPLETED  5.000E-02,  FRACTION OF STEP COMPLETED  0.200    
 STEP TIME COMPLETED       0.200    ,  TOTAL TIME COMPLETED        0.200    


  INCREMENT     5 STARTS. ATTEMPT NUMBER  1, TIME INCREMENT  5.000E-02

  NUMBER OF EQUATIONS =       60     NUMBER OF FLOATING PT. OPERATIONS =  7.38E+04

     CHECK POINT   START OF SOLVER    

     CHECK POINT  END OF SOLVER       

       ELAPSED USER TIME (SEC)      =   0.0000    
       ELAPSED SYSTEM TIME (SEC)    =   0.0000    
       ELAPSED TOTAL CPU TIME (SEC) =   0.0000    
       ELAPSED WALLCLOCK TIME (SEC) =          0

               CONVERGENCE CHECKS FOR EQUILIBRIUM ITERATION     1


 AVERAGE FORCE                      7.627E-03   TIME AVG. FORCE       4.245E-03
 LARGEST RESIDUAL FORCE             4.987E-06   AT NODE         11   DOF  1
   INSTANCE: ELEM1-1                                                                         
 LARGEST INCREMENT OF DISP.        -3.750E-05   AT NODE          1   DOF  2
   INSTANCE: ELEM1-1                                                                         
 LARGEST CORRECTION TO DISP.       -1.461E-06   AT NODE         20   DOF  3
   INSTANCE: ELEM1-1                                                                         
 ESTIMATE OF DISP.    CORRECTION    4.660E-09
 FORCE     EQUILIB. ACCEPTED BASED ON SMALL RESIDUAL AND ESTIMATED CORRECTION

 ITERATION SUMMARY FOR THE INCREMENT:   1 TOTAL ITERATIONS, OF WHICH
   0 ARE SEVERE DISCONTINUITY ITERATIONS AND  1 ARE EQUILIBRIUM ITERATIONS.

 TIME INCREMENT COMPLETED  5.000E-02,  FRACTION OF STEP COMPLETED  0.250    
 STEP TIME COMPLETED       0.250    ,  TOTAL TIME COMPLETED        0.250    


  INCREMENT     6 STARTS. ATTEMPT NUMBER  1, TIME INCREMENT  5.000E-02

  NUMBER OF EQUATIONS =       60     NUMBER OF FLOATING PT. OPERATIONS =  7.38E+04

     CHECK POINT   START OF SOLVER    

     CHECK POINT  END OF SOLVER       

       ELAPSED USER TIME (SEC)      =   0.0000    
       ELAPSED SYSTEM TIME (SEC)    =   0.0000    
       ELAPSED TOTAL CPU TIME (SEC) =   0.0000    
       ELAPSED WALLCLOCK TIME (SEC) =          0

               CONVERGENCE CHECKS FOR EQUILIBRIUM ITERATION     1


 AVERAGE FORCE                      9.668E-03   TIME AVG. FORCE       5.149E-03
 LARGEST RESIDUAL FORCE             5.769E-06   AT NODE         11   DOF  1
   INSTANCE: ELEM1-1                                                                         
 LARGEST INCREMENT OF DISP.        -3.750E-05   AT NODE          1   DOF  2
   INSTANCE: ELEM1-1                                                                         
 LARGEST CORRECTION TO DISP.       -1.628E-06   AT NODE          3   DOF  3
   INSTANCE: ELEM1-1                                                                         
 ESTIMATE OF DISP.    CORRECTION    5.694E-09
 FORCE     EQUILIB. ACCEPTED BASED ON SMALL RESIDUAL AND ESTIMATED CORRECTION

 ITERATION SUMMARY FOR THE INCREMENT:   1 TOTAL ITERATIONS, OF WHICH
   0 ARE SEVERE DISCONTINUITY ITERATIONS AND  1 ARE EQUILIBRIUM ITERATIONS.

 TIME INCREMENT COMPLETED  5.000E-02,  FRACTION OF STEP COMPLETED  0.300    
 STEP TIME COMPLETED       0.300    ,  TOTAL TIME COMPLETED        0.300    


  INCREMENT     7 STARTS. ATTEMPT NUMBER  1, TIME INCREMENT  5.000E-02

  NUMBER OF EQUATIONS =       60     NUMBER OF FLOATING PT. OPERATIONS =  7.38E+04

     CHECK POINT   START OF SOLVER    

     CHECK POINT  END OF SOLVER       

       ELAPSED USER TIME (SEC)      =   0.0000    
       ELAPSED SYSTEM TIME (SEC)    =   0.0000    
       ELAPSED TOTAL CPU TIME (SEC) =   0.0000    
       ELAPSED WALLCLOCK TIME (SEC) =          0

               CONVERGENCE CHECKS FOR EQUILIBRIUM ITERATION     1


 AVERAGE FORCE                      1.197E-02   TIME AVG. FORCE       6.123E-03
 LARGEST RESIDUAL FORCE             6.715E-06   AT NODE         19   DOF  3
   INSTANCE: ELEM1-1                                                                         
 LARGEST INCREMENT OF DISP.        -3.750E-05   AT NODE          1   DOF  2
   INSTANCE: ELEM1-1                                                                         
 LARGEST CORRECTION TO DISP.       -1.822E-06   AT NODE         10   DOF  3
   INSTANCE: ELEM1-1                                                                         
 ESTIMATE OF DISP.    CORRECTION    7.019E-09
 FORCE     EQUILIB. ACCEPTED BASED ON SMALL RESIDUAL AND ESTIMATED CORRECTION

 ITERATION SUMMARY FOR THE INCREMENT:   1 TOTAL ITERATIONS, OF WHICH
   0 ARE SEVERE DISCONTINUITY ITERATIONS AND  1 ARE EQUILIBRIUM ITERATIONS.

 TIME INCREMENT COMPLETED  5.000E-02,  FRACTION OF STEP COMPLETED  0.350    
 STEP TIME COMPLETED       0.350    ,  TOTAL TIME COMPLETED        0.350    


  INCREMENT     8 STARTS. ATTEMPT NUMBER  1, TIME INCREMENT  5.000E-02

  NUMBER OF EQUATIONS =       60     NUMBER OF FLOATING PT. OPERATIONS =  7.38E+04

     CHECK POINT   START OF SOLVER    

     CHECK POINT  END OF SOLVER       

       ELAPSED USER TIME (SEC)      =   0.0000    
       ELAPSED SYSTEM TIME (SEC)    =   0.0000    
       ELAPSED TOTAL CPU TIME (SEC) =   0.0000    
       ELAPSED WALLCLOCK TIME (SEC) =          0

               CONVERGENCE CHECKS FOR EQUILIBRIUM ITERATION     1


 AVERAGE FORCE                      1.457E-02   TIME AVG. FORCE       7.179E-03
 LARGEST RESIDUAL FORCE             7.865E-06   AT NODE         19   DOF  3
   INSTANCE: ELEM1-1                                                                         
 LARGEST INCREMENT OF DISP.        -3.750E-05   AT NODE          1   DOF  2
   INSTANCE: ELEM1-1                                                                         
 LARGEST CORRECTION TO DISP.       -2.051E-06   AT NODE          3   DOF  3
   INSTANCE: ELEM1-1                                                                         
 ESTIMATE OF DISP.    CORRECTION    8.730E-09
 FORCE     EQUILIB. ACCEPTED BASED ON SMALL RESIDUAL AND ESTIMATED CORRECTION

 ITERATION SUMMARY FOR THE INCREMENT:   1 TOTAL ITERATIONS, OF WHICH
   0 ARE SEVERE DISCONTINUITY ITERATIONS AND  1 ARE EQUILIBRIUM ITERATIONS.

 TIME INCREMENT COMPLETED  5.000E-02,  FRACTION OF STEP COMPLETED  0.400    
 STEP TIME COMPLETED       0.400    ,  TOTAL TIME COMPLETED        0.400    


  INCREMENT     9 STARTS. ATTEMPT NUMBER  1, TIME INCREMENT  5.000E-02

  NUMBER OF EQUATIONS =       60     NUMBER OF FLOATING PT. OPERATIONS =  7.38E+04

     CHECK POINT   START OF SOLVER    

     CHECK POINT  END OF SOLVER       

       ELAPSED USER TIME (SEC)      =   0.0000    
       ELAPSED SYSTEM TIME (SEC)    =   0.0000    
       ELAPSED TOTAL CPU TIME (SEC) =   0.0000    
       ELAPSED WALLCLOCK TIME (SEC) =          0

               CONVERGENCE CHECKS FOR EQUILIBRIUM ITERATION     1


 AVERAGE FORCE                      1.757E-02   TIME AVG. FORCE       8.333E-03
 LARGEST RESIDUAL FORCE             9.275E-06   AT NODE         19   DOF  3
   INSTANCE: ELEM1-1                                                                         
 LARGEST INCREMENT OF DISP.        -3.750E-05   AT NODE          1   DOF  2
   INSTANCE: ELEM1-1                                                                         
 LARGEST CORRECTION TO DISP.       -2.322E-06   AT NODE          7   DOF  3
   INSTANCE: ELEM1-1                                                                         
 ESTIMATE OF DISP.    CORRECTION    1.097E-08
 FORCE     EQUILIB. ACCEPTED BASED ON SMALL RESIDUAL AND ESTIMATED CORRECTION

 ITERATION SUMMARY FOR THE INCREMENT:   1 TOTAL ITERATIONS, OF WHICH
   0 ARE SEVERE DISCONTINUITY ITERATIONS AND  1 ARE EQUILIBRIUM ITERATIONS.

 TIME INCREMENT COMPLETED  5.000E-02,  FRACTION OF STEP COMPLETED  0.450    
 STEP TIME COMPLETED       0.450    ,  TOTAL TIME COMPLETED        0.450    


  INCREMENT    10 STARTS. ATTEMPT NUMBER  1, TIME INCREMENT  5.000E-02

  NUMBER OF EQUATIONS =       60     NUMBER OF FLOATING PT. OPERATIONS =  7.38E+04

     CHECK POINT   START OF SOLVER    

     CHECK POINT  END OF SOLVER       

       ELAPSED USER TIME (SEC)      =   0.0000    
       ELAPSED SYSTEM TIME (SEC)    =   0.0000    
       ELAPSED TOTAL CPU TIME (SEC) =   0.0000    
       ELAPSED WALLCLOCK TIME (SEC) =          0

               CONVERGENCE CHECKS FOR EQUILIBRIUM ITERATION     1


 AVERAGE FORCE                      2.103E-02   TIME AVG. FORCE       9.603E-03
 LARGEST RESIDUAL FORCE             1.102E-05   AT NODE         11   DOF  1
   INSTANCE: ELEM1-1                                                                         
 LARGEST INCREMENT OF DISP.        -3.750E-05   AT NODE          1   DOF  2
   INSTANCE: ELEM1-1                                                                         
 LARGEST CORRECTION TO DISP.       -2.645E-06   AT NODE          7   DOF  1
   INSTANCE: ELEM1-1                                                                         
 ESTIMATE OF DISP.    CORRECTION    1.394E-08
 FORCE     EQUILIB. ACCEPTED BASED ON SMALL RESIDUAL AND ESTIMATED CORRECTION

 ITERATION SUMMARY FOR THE INCREMENT:   1 TOTAL ITERATIONS, OF WHICH
   0 ARE SEVERE DISCONTINUITY ITERATIONS AND  1 ARE EQUILIBRIUM ITERATIONS.

 TIME INCREMENT COMPLETED  5.000E-02,  FRACTION OF STEP COMPLETED  0.500    
 STEP TIME COMPLETED       0.500    ,  TOTAL TIME COMPLETED        0.500    


  INCREMENT    11 STARTS. ATTEMPT NUMBER  1, TIME INCREMENT  5.000E-02

  NUMBER OF EQUATIONS =       60     NUMBER OF FLOATING PT. OPERATIONS =  7.38E+04

     CHECK POINT   START OF SOLVER    

     CHECK POINT  END OF SOLVER       

       ELAPSED USER TIME (SEC)      =   0.0000    
       ELAPSED SYSTEM TIME (SEC)    =   0.0000    
       ELAPSED TOTAL CPU TIME (SEC) =   0.0000    
       ELAPSED WALLCLOCK TIME (SEC) =          0

               CONVERGENCE CHECKS FOR EQUILIBRIUM ITERATION     1


 AVERAGE FORCE                      2.510E-02   TIME AVG. FORCE       1.101E-02
 LARGEST RESIDUAL FORCE             1.321E-05   AT NODE         11   DOF  1
   INSTANCE: ELEM1-1                                                                         
 LARGEST INCREMENT OF DISP.        -3.750E-05   AT NODE          1   DOF  2
   INSTANCE: ELEM1-1                                                                         
 LARGEST CORRECTION TO DISP.       -3.034E-06   AT NODE          3   DOF  3
   INSTANCE: ELEM1-1                                                                         
 ESTIMATE OF DISP.    CORRECTION    1.794E-08
 FORCE     EQUILIB. ACCEPTED BASED ON SMALL RESIDUAL AND ESTIMATED CORRECTION

 ITERATION SUMMARY FOR THE INCREMENT:   1 TOTAL ITERATIONS, OF WHICH
   0 ARE SEVERE DISCONTINUITY ITERATIONS AND  1 ARE EQUILIBRIUM ITERATIONS.

 TIME INCREMENT COMPLETED  5.000E-02,  FRACTION OF STEP COMPLETED  0.550    
 STEP TIME COMPLETED       0.550    ,  TOTAL TIME COMPLETED        0.550    


  INCREMENT    12 STARTS. ATTEMPT NUMBER  1, TIME INCREMENT  5.000E-02

  NUMBER OF EQUATIONS =       60     NUMBER OF FLOATING PT. OPERATIONS =  7.38E+04

     CHECK POINT   START OF SOLVER    

     CHECK POINT  END OF SOLVER       

       ELAPSED USER TIME (SEC)      =   0.0000    
       ELAPSED SYSTEM TIME (SEC)    =   0.0000    
       ELAPSED TOTAL CPU TIME (SEC) =   0.0000    
       ELAPSED WALLCLOCK TIME (SEC) =          0

               CONVERGENCE CHECKS FOR EQUILIBRIUM ITERATION     1


 AVERAGE FORCE                      2.993E-02   TIME AVG. FORCE       1.259E-02
 LARGEST RESIDUAL FORCE             1.597E-05   AT NODE         11   DOF  1
   INSTANCE: ELEM1-1                                                                         
 LARGEST INCREMENT OF DISP.        -3.986E-05   AT NODE         20   DOF  3
   INSTANCE: ELEM1-1                                                                         
 LARGEST CORRECTION TO DISP.       -3.508E-06   AT NODE         20   DOF  3
   INSTANCE: ELEM1-1                                                                         
 ESTIMATE OF DISP.    CORRECTION    2.341E-08
 FORCE     EQUILIB. ACCEPTED BASED ON SMALL RESIDUAL AND ESTIMATED CORRECTION

 ITERATION SUMMARY FOR THE INCREMENT:   1 TOTAL ITERATIONS, OF WHICH
   0 ARE SEVERE DISCONTINUITY ITERATIONS AND  1 ARE EQUILIBRIUM ITERATIONS.

 TIME INCREMENT COMPLETED  5.000E-02,  FRACTION OF STEP COMPLETED  0.600    
 STEP TIME COMPLETED       0.600    ,  TOTAL TIME COMPLETED        0.600    


  INCREMENT    13 STARTS. ATTEMPT NUMBER  1, TIME INCREMENT  5.000E-02

  NUMBER OF EQUATIONS =       60     NUMBER OF FLOATING PT. OPERATIONS =  7.38E+04

     CHECK POINT   START OF SOLVER    

     CHECK POINT  END OF SOLVER       

       ELAPSED USER TIME (SEC)      =   0.0000    
       ELAPSED SYSTEM TIME (SEC)    =   0.0000    
       ELAPSED TOTAL CPU TIME (SEC) =   0.0000    
       ELAPSED WALLCLOCK TIME (SEC) =          0

               CONVERGENCE CHECKS FOR EQUILIBRIUM ITERATION     1


 AVERAGE FORCE                      3.576E-02   TIME AVG. FORCE       1.437E-02
 LARGEST RESIDUAL FORCE             1.949E-05   AT NODE         11   DOF  1
   INSTANCE: ELEM1-1                                                                         
 LARGEST INCREMENT OF DISP.        -4.395E-05   AT NODE         20   DOF  3
   INSTANCE: ELEM1-1                                                                         
 LARGEST CORRECTION TO DISP.       -4.092E-06   AT NODE          9   DOF  1
   INSTANCE: ELEM1-1                                                                         
 ESTIMATE OF DISP.    CORRECTION    3.102E-08
 FORCE     EQUILIB. ACCEPTED BASED ON SMALL RESIDUAL AND ESTIMATED CORRECTION

 ITERATION SUMMARY FOR THE INCREMENT:   1 TOTAL ITERATIONS, OF WHICH
   0 ARE SEVERE DISCONTINUITY ITERATIONS AND  1 ARE EQUILIBRIUM ITERATIONS.

 TIME INCREMENT COMPLETED  5.000E-02,  FRACTION OF STEP COMPLETED  0.650    
 STEP TIME COMPLETED       0.650    ,  TOTAL TIME COMPLETED        0.650    


  INCREMENT    14 STARTS. ATTEMPT NUMBER  1, TIME INCREMENT  5.000E-02

  NUMBER OF EQUATIONS =       60     NUMBER OF FLOATING PT. OPERATIONS =  7.38E+04

     CHECK POINT   START OF SOLVER    

     CHECK POINT  END OF SOLVER       

       ELAPSED USER TIME (SEC)      =   0.0000    
       ELAPSED SYSTEM TIME (SEC)    =   0.0000    
       ELAPSED TOTAL CPU TIME (SEC) =   0.0000    
       ELAPSED WALLCLOCK TIME (SEC) =          0

               CONVERGENCE CHECKS FOR EQUILIBRIUM ITERATION     1


 AVERAGE FORCE                      4.291E-02   TIME AVG. FORCE       1.641E-02
 LARGEST RESIDUAL FORCE             2.406E-05   AT NODE         19   DOF  3
   INSTANCE: ELEM1-1                                                                         
 LARGEST INCREMENT OF DISP.        -4.877E-05   AT NODE          5   DOF  1
   INSTANCE: ELEM1-1                                                                         
 LARGEST CORRECTION TO DISP.       -4.819E-06   AT NODE          8   DOF  3
   INSTANCE: ELEM1-1                                                                         
 ESTIMATE OF DISP.    CORRECTION    4.184E-08
 FORCE     EQUILIB. ACCEPTED BASED ON SMALL RESIDUAL AND ESTIMATED CORRECTION

 ITERATION SUMMARY FOR THE INCREMENT:   1 TOTAL ITERATIONS, OF WHICH
   0 ARE SEVERE DISCONTINUITY ITERATIONS AND  1 ARE EQUILIBRIUM ITERATIONS.

 TIME INCREMENT COMPLETED  5.000E-02,  FRACTION OF STEP COMPLETED  0.700    
 STEP TIME COMPLETED       0.700    ,  TOTAL TIME COMPLETED        0.700    


  INCREMENT    15 STARTS. ATTEMPT NUMBER  1, TIME INCREMENT  5.000E-02

  NUMBER OF EQUATIONS =       60     NUMBER OF FLOATING PT. OPERATIONS =  7.38E+04

     CHECK POINT   START OF SOLVER    

     CHECK POINT  END OF SOLVER       

       ELAPSED USER TIME (SEC)      =   0.0000    
       ELAPSED SYSTEM TIME (SEC)    =   0.0000    
       ELAPSED TOTAL CPU TIME (SEC) =   0.0000    
       ELAPSED WALLCLOCK TIME (SEC) =          0

               CONVERGENCE CHECKS FOR EQUILIBRIUM ITERATION     1


 AVERAGE FORCE                      5.184E-02   TIME AVG. FORCE       1.877E-02
 LARGEST RESIDUAL FORCE             3.004E-05   AT NODE         11   DOF  1
   INSTANCE: ELEM1-1                                                                         
 LARGEST INCREMENT OF DISP.        -5.451E-05   AT NODE          7   DOF  3
   INSTANCE: ELEM1-1                                                                         
 LARGEST CORRECTION TO DISP.       -5.738E-06   AT NODE          7   DOF  3
   INSTANCE: ELEM1-1                                                                         
 ESTIMATE OF DISP.    CORRECTION    5.755E-08
 FORCE     EQUILIB. ACCEPTED BASED ON SMALL RESIDUAL AND ESTIMATED CORRECTION

 ITERATION SUMMARY FOR THE INCREMENT:   1 TOTAL ITERATIONS, OF WHICH
   0 ARE SEVERE DISCONTINUITY ITERATIONS AND  1 ARE EQUILIBRIUM ITERATIONS.

 TIME INCREMENT COMPLETED  5.000E-02,  FRACTION OF STEP COMPLETED  0.750    
 STEP TIME COMPLETED       0.750    ,  TOTAL TIME COMPLETED        0.750    


  INCREMENT    16 STARTS. ATTEMPT NUMBER  1, TIME INCREMENT  5.000E-02

  NUMBER OF EQUATIONS =       60     NUMBER OF FLOATING PT. OPERATIONS =  7.38E+04

     CHECK POINT   START OF SOLVER    

     CHECK POINT  END OF SOLVER       

       ELAPSED USER TIME (SEC)      =   0.0000    
       ELAPSED SYSTEM TIME (SEC)    =   0.0000    
       ELAPSED TOTAL CPU TIME (SEC) =   0.0000    
       ELAPSED WALLCLOCK TIME (SEC) =          0

               CONVERGENCE CHECKS FOR EQUILIBRIUM ITERATION     1


 AVERAGE FORCE                      6.325E-02   TIME AVG. FORCE       2.155E-02
 LARGEST RESIDUAL FORCE             3.798E-05   AT NODE         11   DOF  1
   INSTANCE: ELEM1-1                                                                         
 LARGEST INCREMENT OF DISP.        -6.143E-05   AT NODE          5   DOF  1
   INSTANCE: ELEM1-1                                                                         
 LARGEST CORRECTION TO DISP.       -6.916E-06   AT NODE          5   DOF  1
   INSTANCE: ELEM1-1                                                                         
 ESTIMATE OF DISP.    CORRECTION    8.092E-08
 FORCE     EQUILIB. ACCEPTED BASED ON SMALL RESIDUAL AND ESTIMATED CORRECTION

 ITERATION SUMMARY FOR THE INCREMENT:   1 TOTAL ITERATIONS, OF WHICH
   0 ARE SEVERE DISCONTINUITY ITERATIONS AND  1 ARE EQUILIBRIUM ITERATIONS.

 TIME INCREMENT COMPLETED  5.000E-02,  FRACTION OF STEP COMPLETED  0.800    
 STEP TIME COMPLETED       0.800    ,  TOTAL TIME COMPLETED        0.800    


  INCREMENT    17 STARTS. ATTEMPT NUMBER  1, TIME INCREMENT  5.000E-02

  NUMBER OF EQUATIONS =       60     NUMBER OF FLOATING PT. OPERATIONS =  7.38E+04

     CHECK POINT   START OF SOLVER    

     CHECK POINT  END OF SOLVER       

       ELAPSED USER TIME (SEC)      =   0.0000    
       ELAPSED SYSTEM TIME (SEC)    =   0.0000    
       ELAPSED TOTAL CPU TIME (SEC) =   0.0000    
       ELAPSED WALLCLOCK TIME (SEC) =          0

               CONVERGENCE CHECKS FOR EQUILIBRIUM ITERATION     1


 AVERAGE FORCE                      7.817E-02   TIME AVG. FORCE       2.488E-02
 LARGEST RESIDUAL FORCE             4.865E-05   AT NODE         11   DOF  1
   INSTANCE: ELEM1-1                                                                         
 LARGEST INCREMENT OF DISP.        -6.988E-05   AT NODE          5   DOF  1
   INSTANCE: ELEM1-1                                                                         
 LARGEST CORRECTION TO DISP.       -8.451E-06   AT NODE          9   DOF  1
   INSTANCE: ELEM1-1                                                                         
 ESTIMATE OF DISP.    CORRECTION    1.167E-07
 FORCE     EQUILIB. ACCEPTED BASED ON SMALL RESIDUAL AND ESTIMATED CORRECTION

 ITERATION SUMMARY FOR THE INCREMENT:   1 TOTAL ITERATIONS, OF WHICH
   0 ARE SEVERE DISCONTINUITY ITERATIONS AND  1 ARE EQUILIBRIUM ITERATIONS.

 TIME INCREMENT COMPLETED  5.000E-02,  FRACTION OF STEP COMPLETED  0.850    
 STEP TIME COMPLETED       0.850    ,  TOTAL TIME COMPLETED        0.850    


  INCREMENT    18 STARTS. ATTEMPT NUMBER  1, TIME INCREMENT  5.000E-02

  NUMBER OF EQUATIONS =       60     NUMBER OF FLOATING PT. OPERATIONS =  7.38E+04

     CHECK POINT   START OF SOLVER    

     CHECK POINT  END OF SOLVER       

       ELAPSED USER TIME (SEC)      =   0.0000    
       ELAPSED SYSTEM TIME (SEC)    =   0.0000    
       ELAPSED TOTAL CPU TIME (SEC) =   0.0000    
       ELAPSED WALLCLOCK TIME (SEC) =          0

               CONVERGENCE CHECKS FOR EQUILIBRIUM ITERATION     1


 AVERAGE FORCE                      9.831E-02   TIME AVG. FORCE       2.896E-02
 LARGEST RESIDUAL FORCE             6.311E-05   AT NODE         11   DOF  1
   INSTANCE: ELEM1-1                                                                         
 LARGEST INCREMENT OF DISP.        -8.037E-05   AT NODE          3   DOF  3
   INSTANCE: ELEM1-1                                                                         
 LARGEST CORRECTION TO DISP.       -1.049E-05   AT NODE          7   DOF  1
   INSTANCE: ELEM1-1                                                                         
 ESTIMATE OF DISP.    CORRECTION    1.731E-07
 FORCE     EQUILIB. ACCEPTED BASED ON SMALL RESIDUAL AND ESTIMATED CORRECTION

 ITERATION SUMMARY FOR THE INCREMENT:   1 TOTAL ITERATIONS, OF WHICH
   0 ARE SEVERE DISCONTINUITY ITERATIONS AND  1 ARE EQUILIBRIUM ITERATIONS.

 TIME INCREMENT COMPLETED  5.000E-02,  FRACTION OF STEP COMPLETED  0.900    
 STEP TIME COMPLETED       0.900    ,  TOTAL TIME COMPLETED        0.900    


  INCREMENT    19 STARTS. ATTEMPT NUMBER  1, TIME INCREMENT  5.000E-02

  NUMBER OF EQUATIONS =       60     NUMBER OF FLOATING PT. OPERATIONS =  7.38E+04

     CHECK POINT   START OF SOLVER    

     CHECK POINT  END OF SOLVER       

       ELAPSED USER TIME (SEC)      =   0.0000    
       ELAPSED SYSTEM TIME (SEC)    =   0.0000    
       ELAPSED TOTAL CPU TIME (SEC) =   0.0000    
       ELAPSED WALLCLOCK TIME (SEC) =          0

               CONVERGENCE CHECKS FOR EQUILIBRIUM ITERATION     1


 AVERAGE FORCE                      0.126       TIME AVG. FORCE       3.409E-02
 LARGEST RESIDUAL FORCE             8.274E-05   AT NODE         19   DOF  3
   INSTANCE: ELEM1-1                                                                         
 LARGEST INCREMENT OF DISP.        -9.360E-05   AT NODE          3   DOF  3
   INSTANCE: ELEM1-1                                                                         
 LARGEST CORRECTION TO DISP.       -1.323E-05   AT NODE          9   DOF  1
   INSTANCE: ELEM1-1                                                                         
 ESTIMATE OF DISP.    CORRECTION    2.646E-07
 FORCE     EQUILIB. ACCEPTED BASED ON SMALL RESIDUAL AND ESTIMATED CORRECTION

 ITERATION SUMMARY FOR THE INCREMENT:   1 TOTAL ITERATIONS, OF WHICH
   0 ARE SEVERE DISCONTINUITY ITERATIONS AND  1 ARE EQUILIBRIUM ITERATIONS.

 TIME INCREMENT COMPLETED  5.000E-02,  FRACTION OF STEP COMPLETED  0.950    
 STEP TIME COMPLETED       0.950    ,  TOTAL TIME COMPLETED        0.950    


  INCREMENT    20 STARTS. ATTEMPT NUMBER  1, TIME INCREMENT  5.000E-02

  NUMBER OF EQUATIONS =       60     NUMBER OF FLOATING PT. OPERATIONS =  7.38E+04

     CHECK POINT   START OF SOLVER    

     CHECK POINT  END OF SOLVER       

       ELAPSED USER TIME (SEC)      =   0.0000    
       ELAPSED SYSTEM TIME (SEC)    =   0.0000    
       ELAPSED TOTAL CPU TIME (SEC) =   0.0000    
       ELAPSED WALLCLOCK TIME (SEC) =          0

               CONVERGENCE CHECKS FOR EQUILIBRIUM ITERATION     1


 AVERAGE FORCE                      0.168       TIME AVG. FORCE       4.077E-02
 LARGEST RESIDUAL FORCE             1.088E-04   AT NODE         11   DOF  1
   INSTANCE: ELEM1-1                                                                         
 LARGEST INCREMENT OF DISP.        -1.106E-04   AT NODE          5   DOF  1
   INSTANCE: ELEM1-1                                                                         
 LARGEST CORRECTION TO DISP.       -1.697E-05   AT NODE          5   DOF  1
   INSTANCE: ELEM1-1                                                                         
 ESTIMATE OF DISP.    CORRECTION    4.173E-07
 FORCE     EQUILIB. ACCEPTED BASED ON SMALL RESIDUAL AND ESTIMATED CORRECTION

 ITERATION SUMMARY FOR THE INCREMENT:   1 TOTAL ITERATIONS, OF WHICH
   0 ARE SEVERE DISCONTINUITY ITERATIONS AND  1 ARE EQUILIBRIUM ITERATIONS.

 TIME INCREMENT COMPLETED  5.000E-02,  FRACTION OF STEP COMPLETED   1.00    
 STEP TIME COMPLETED        1.00    ,  TOTAL TIME COMPLETED         1.00    


          THE ANALYSIS HAS BEEN COMPLETED



     ANALYSIS SUMMARY:
     TOTAL OF         20  INCREMENTS
                       0  CUTBACKS IN AUTOMATIC INCREMENTATION
                      22  ITERATIONS INCLUDING CONTACT ITERATIONS IF PRESENT
                      22  PASSES THROUGH THE EQUATION SOLVER OF WHICH 
                      22  INVOLVE MATRIX DECOMPOSITION, INCLUDING
                       0  DECOMPOSITION(S) OF THE MASS MATRIX
                       1  REORDERING OF EQUATIONS TO MINIMIZE WAVEFRONT
                       0  ADDITIONAL RESIDUAL EVALUATIONS FOR LINE SEARCHES
                       0  ADDITIONAL OPERATOR EVALUATIONS FOR LINE SEARCHES
                       0  WARNING MESSAGES DURING USER INPUT PROCESSING
                       0  WARNING MESSAGES DURING ANALYSIS
                       0  ANALYSIS WARNINGS ARE NUMERICAL PROBLEM MESSAGES
                       0  ANALYSIS WARNINGS ARE NEGATIVE EIGENVALUE MESSAGES
                       0  ERROR MESSAGES



     JOB TIME SUMMARY
       USER TIME (SEC)      =  0.30000    
       SYSTEM TIME (SEC)    =  0.10000    
       TOTAL CPU TIME (SEC) =  0.40000    
       WALLCLOCK TIME (SEC) =          1
