1

   Abaqus 6.13-1                                  Date 17-ÎåÔÂ-2015   Time 14:24:52
   For use by  under license from Dassault Systemes or its subsidiary.

                                                                                 
                                                                                 
 STEP    1     INCREMENT     1     STEP TIME    0.00    


                        S T E P       1     S T A T I C   A N A L Y S I S


                                                                                          

          FIXED TIME INCREMENTS
          TIME INCREMENT IS                                    5.000E-02
          TIME PERIOD IS                                        1.00    

     LINEAR EQUATION SOLVER TYPE         DIRECT SPARSE

 CONVERGENCE TOLERANCE PARAMETERS FOR FORCE    
     CRITERION FOR RESIDUAL FORCE     FOR A NONLINEAR PROBLEM          5.000E-03
     CRITERION FOR DISP.    CORRECTION IN A NONLINEAR PROBLEM          1.000E-02
     INITIAL VALUE OF TIME AVERAGE FORCE                               1.000E-02
     AVERAGE FORCE     IS TIME AVERAGE FORCE    
     ALTERNATE CRIT. FOR RESIDUAL FORCE     FOR A NONLINEAR PROBLEM    2.000E-02
     CRITERION FOR ZERO FORCE     RELATIVE TO TIME AVRG. FORCE         1.000E-05
     CRITERION FOR RESIDUAL FORCE     WHEN THERE IS ZERO FLUX          1.000E-05
     CRITERION FOR DISP.    CORRECTION WHEN THERE IS ZERO FLUX         1.000E-03
     CRITERION FOR RESIDUAL FORCE     FOR A LINEAR INCREMENT           1.000E-08
     FIELD CONVERSION RATIO                                             1.00    
     CRITERION FOR ZERO FORCE     REL. TO TIME AVRG. MAX. FORCE        1.000E-05
     CRITERION FOR ZERO DISP.    RELATIVE TO CHARACTERISTIC LENGTH     1.000E-08

     VOLUMETRIC STRAIN COMPATIBILITY TOLERANCE FOR HYBRID SOLIDS       1.000E-05
     AXIAL STRAIN COMPATIBILITY TOLERANCE FOR HYBRID BEAMS             1.000E-05
     TRANS. SHEAR STRAIN COMPATIBILITY TOLERANCE FOR HYBRID BEAMS      1.000E-05
     SOFT CONTACT CONSTRAINT COMPATIBILITY TOLERANCE FOR P>P0          5.000E-03
     SOFT CONTACT CONSTRAINT COMPATIBILITY TOLERANCE FOR P=0.0         0.100    
     CONTACT FORCE ERROR TOLERANCE FOR CONVERT SDI=YES                 1.00    
     DISPLACEMENT COMPATIBILITY TOLERANCE FOR DCOUP ELEMENTS           1.000E-05
     ROTATION COMPATIBILITY TOLERANCE FOR DCOUP ELEMENTS               1.000E-05

 EQUILIBRIUM WILL BE CHECKED FOR SEVERE DISCONTINUITY ITERATIONS

 ITERATION CONTROL PARAMETERS:
     FIRST EQUILIBRIUM ITERATION FOR CONSECUTIVE DIVERGENCE CHECK              4
     EQUILIBRIUM ITERATION AFTER WHICH ALTERNATE RESIDUAL IS USED              9
     MAXIMUM EQUILIBRIUM ITERATIONS ALLOWED                                   16
     MAXIMUM ITERATIONS FOR SEVERE DISCONTINUITIES                            12
     GLOBAL STABILIZATION CONTROL IS NOT USED

          PRINT OF INCREMENT NUMBER, TIME, ETC., EVERY    1  INCREMENTS

     THE MAXIMUM NUMBER OF INCREMENTS IN THIS STEP IS                     100

          LARGE DISPLACEMENT THEORY WILL BE USED

     LINEAR EXTRAPOLATION WILL BE USED

     CHARACTERISTIC ELEMENT LENGTH     1.000E-03

     DETAILS REGARDING ACTUAL SOLUTION WAVEFRONT REQUESTED

     DETAILED OUTPUT OF DIAGNOSTICS TO DATABASE REQUESTED

     PRINT OF INCREMENT NUMBER, TIME, ETC., TO THE MESSAGE FILE EVERY     1  INCREMENTS

     EQUATIONS ARE BEING REORDERED TO MINIMIZE WAVEFRONT

     COLLECTING MODEL CONSTRAINT INFORMATION FOR OVERCONSTRAINT CHECKS

     COLLECTING STEP CONSTRAINT INFORMATION FOR OVERCONSTRAINT CHECKS


  INCREMENT     1 STARTS. ATTEMPT NUMBER  1, TIME INCREMENT  5.000E-02

  NUMBER OF EQUATIONS =       60     NUMBER OF FLOATING PT. OPERATIONS =  7.38E+04

     CHECK POINT   START OF SOLVER    

     CHECK POINT  END OF SOLVER       

       ELAPSED USER TIME (SEC)      =   0.0000    
       ELAPSED SYSTEM TIME (SEC)    =   0.0000    
       ELAPSED TOTAL CPU TIME (SEC) =   0.0000    
       ELAPSED WALLCLOCK TIME (SEC) =          0

               CONVERGENCE CHECKS FOR EQUILIBRIUM ITERATION     1


 AVERAGE FORCE                      5.770E-03   TIME AVG. FORCE       5.770E-03
 LARGEST RESIDUAL FORCE            -1.127E-02   AT NODE         15   DOF  3
   INSTANCE: ELEM1-1                                                                         
 LARGEST INCREMENT OF DISP.         1.500E-04   AT NODE          1   DOF  2
   INSTANCE: ELEM1-1                                                                         
 LARGEST CORRECTION TO DISP.        1.500E-04   AT NODE          1   DOF  2
   INSTANCE: ELEM1-1                                                                         
          FORCE     EQUILIBRIUM NOT ACHIEVED WITHIN TOLERANCE.

  NUMBER OF EQUATIONS =       60     NUMBER OF FLOATING PT. OPERATIONS =  7.38E+04

     CHECK POINT   START OF SOLVER    

     CHECK POINT  END OF SOLVER       

       ELAPSED USER TIME (SEC)      =   0.0000    
       ELAPSED SYSTEM TIME (SEC)    =   0.0000    
       ELAPSED TOTAL CPU TIME (SEC) =   0.0000    
       ELAPSED WALLCLOCK TIME (SEC) =          0

               CONVERGENCE CHECKS FOR EQUILIBRIUM ITERATION     2


 AVERAGE FORCE                      3.451E-03   TIME AVG. FORCE       3.451E-03
 LARGEST RESIDUAL FORCE             1.187E-04   AT NODE         10   DOF  3
   INSTANCE: ELEM1-1                                                                         
 LARGEST INCREMENT OF DISP.         1.500E-04   AT NODE          1   DOF  2
   INSTANCE: ELEM1-1                                                                         
 LARGEST CORRECTION TO DISP.       -7.121E-06   AT NODE         15   DOF  3
   INSTANCE: ELEM1-1                                                                         
          FORCE     EQUILIBRIUM NOT ACHIEVED WITHIN TOLERANCE.

  NUMBER OF EQUATIONS =       60     NUMBER OF FLOATING PT. OPERATIONS =  7.38E+04

     CHECK POINT   START OF SOLVER    

     CHECK POINT  END OF SOLVER       

       ELAPSED USER TIME (SEC)      =   0.0000    
       ELAPSED SYSTEM TIME (SEC)    =   0.0000    
       ELAPSED TOTAL CPU TIME (SEC) =   0.0000    
       ELAPSED WALLCLOCK TIME (SEC) =          0

               CONVERGENCE CHECKS FOR EQUILIBRIUM ITERATION     3


 AVERAGE FORCE                      3.397E-03   TIME AVG. FORCE       3.397E-03
 LARGEST RESIDUAL FORCE             2.555E-08   AT NODE         12   DOF  1
   INSTANCE: ELEM1-1                                                                         
 LARGEST INCREMENT OF DISP.         1.500E-04   AT NODE          1   DOF  2
   INSTANCE: ELEM1-1                                                                         
 LARGEST CORRECTION TO DISP.        7.477E-08   AT NODE          8   DOF  3
   INSTANCE: ELEM1-1                                                                         
          THE FORCE     EQUILIBRIUM EQUATIONS HAVE CONVERGED

 ITERATION SUMMARY FOR THE INCREMENT:   3 TOTAL ITERATIONS, OF WHICH
   0 ARE SEVERE DISCONTINUITY ITERATIONS AND  3 ARE EQUILIBRIUM ITERATIONS.

 TIME INCREMENT COMPLETED  5.000E-02,  FRACTION OF STEP COMPLETED  5.000E-02
 STEP TIME COMPLETED       5.000E-02,  TOTAL TIME COMPLETED        5.000E-02


  INCREMENT     2 STARTS. ATTEMPT NUMBER  1, TIME INCREMENT  5.000E-02

  NUMBER OF EQUATIONS =       60     NUMBER OF FLOATING PT. OPERATIONS =  7.38E+04

     CHECK POINT   START OF SOLVER    

     CHECK POINT  END OF SOLVER       

       ELAPSED USER TIME (SEC)      =   0.0000    
       ELAPSED SYSTEM TIME (SEC)    =   0.0000    
       ELAPSED TOTAL CPU TIME (SEC) =   0.0000    
       ELAPSED WALLCLOCK TIME (SEC) =          0

               CONVERGENCE CHECKS FOR EQUILIBRIUM ITERATION     1


 AVERAGE FORCE                      7.078E-03   TIME AVG. FORCE       5.238E-03
 LARGEST RESIDUAL FORCE             6.661E-04   AT NODE         10   DOF  1
   INSTANCE: ELEM1-1                                                                         
 LARGEST INCREMENT OF DISP.         1.500E-04   AT NODE          1   DOF  2
   INSTANCE: ELEM1-1                                                                         
 LARGEST CORRECTION TO DISP.       -1.174E-05   AT NODE          8   DOF  3
   INSTANCE: ELEM1-1                                                                         
          FORCE     EQUILIBRIUM NOT ACHIEVED WITHIN TOLERANCE.

  NUMBER OF EQUATIONS =       60     NUMBER OF FLOATING PT. OPERATIONS =  7.38E+04

     CHECK POINT   START OF SOLVER    

     CHECK POINT  END OF SOLVER       

       ELAPSED USER TIME (SEC)      =   0.0000    
       ELAPSED SYSTEM TIME (SEC)    =   0.0000    
       ELAPSED TOTAL CPU TIME (SEC) =   0.0000    
       ELAPSED WALLCLOCK TIME (SEC) =          0

               CONVERGENCE CHECKS FOR EQUILIBRIUM ITERATION     2


 AVERAGE FORCE                      1.140E-02   TIME AVG. FORCE       7.399E-03
 LARGEST RESIDUAL FORCE             4.280E-07   AT NODE         15   DOF  3
   INSTANCE: ELEM1-1                                                                         
 LARGEST INCREMENT OF DISP.         1.500E-04   AT NODE          1   DOF  2
   INSTANCE: ELEM1-1                                                                         
 LARGEST CORRECTION TO DISP.        3.570E-07   AT NODE          8   DOF  3
   INSTANCE: ELEM1-1                                                                         
          THE FORCE     EQUILIBRIUM EQUATIONS HAVE CONVERGED

 ITERATION SUMMARY FOR THE INCREMENT:   2 TOTAL ITERATIONS, OF WHICH
   0 ARE SEVERE DISCONTINUITY ITERATIONS AND  2 ARE EQUILIBRIUM ITERATIONS.

 TIME INCREMENT COMPLETED  5.000E-02,  FRACTION OF STEP COMPLETED  0.100    
 STEP TIME COMPLETED       0.100    ,  TOTAL TIME COMPLETED        0.100    


  INCREMENT     3 STARTS. ATTEMPT NUMBER  1, TIME INCREMENT  5.000E-02

  NUMBER OF EQUATIONS =       60     NUMBER OF FLOATING PT. OPERATIONS =  7.38E+04

     CHECK POINT   START OF SOLVER    

     CHECK POINT  END OF SOLVER       

       ELAPSED USER TIME (SEC)      =   0.0000    
       ELAPSED SYSTEM TIME (SEC)    =   0.0000    
       ELAPSED TOTAL CPU TIME (SEC) =   0.0000    
       ELAPSED WALLCLOCK TIME (SEC) =          0

               CONVERGENCE CHECKS FOR EQUILIBRIUM ITERATION     1


 AVERAGE FORCE                      9.444E-03   TIME AVG. FORCE       8.080E-03
 LARGEST RESIDUAL FORCE             4.265E-04   AT NODE         10   DOF  1
   INSTANCE: ELEM1-1                                                                         
 LARGEST INCREMENT OF DISP.         1.500E-04   AT NODE          1   DOF  2
   INSTANCE: ELEM1-1                                                                         
 LARGEST CORRECTION TO DISP.       -8.615E-06   AT NODE          8   DOF  1
   INSTANCE: ELEM1-1                                                                         
          FORCE     EQUILIBRIUM NOT ACHIEVED WITHIN TOLERANCE.

  NUMBER OF EQUATIONS =       60     NUMBER OF FLOATING PT. OPERATIONS =  7.38E+04

     CHECK POINT   START OF SOLVER    

     CHECK POINT  END OF SOLVER       

       ELAPSED USER TIME (SEC)      =   0.0000    
       ELAPSED SYSTEM TIME (SEC)    =   0.0000    
       ELAPSED TOTAL CPU TIME (SEC) =   0.0000    
       ELAPSED WALLCLOCK TIME (SEC) =          0

               CONVERGENCE CHECKS FOR EQUILIBRIUM ITERATION     2


 AVERAGE FORCE                      3.120E-02   TIME AVG. FORCE       1.533E-02
 LARGEST RESIDUAL FORCE             1.751E-07   AT NODE         12   DOF  1
   INSTANCE: ELEM1-1                                                                         
 LARGEST INCREMENT OF DISP.         1.500E-04   AT NODE          1   DOF  2
   INSTANCE: ELEM1-1                                                                         
 LARGEST CORRECTION TO DISP.        2.000E-07   AT NODE          8   DOF  1
   INSTANCE: ELEM1-1                                                                         
          THE FORCE     EQUILIBRIUM EQUATIONS HAVE CONVERGED

 ITERATION SUMMARY FOR THE INCREMENT:   2 TOTAL ITERATIONS, OF WHICH
   0 ARE SEVERE DISCONTINUITY ITERATIONS AND  2 ARE EQUILIBRIUM ITERATIONS.

 TIME INCREMENT COMPLETED  5.000E-02,  FRACTION OF STEP COMPLETED  0.150    
 STEP TIME COMPLETED       0.150    ,  TOTAL TIME COMPLETED        0.150    


  INCREMENT     4 STARTS. ATTEMPT NUMBER  1, TIME INCREMENT  5.000E-02

  NUMBER OF EQUATIONS =       60     NUMBER OF FLOATING PT. OPERATIONS =  7.38E+04

     CHECK POINT   START OF SOLVER    

     CHECK POINT  END OF SOLVER       

       ELAPSED USER TIME (SEC)      =   0.0000    
       ELAPSED SYSTEM TIME (SEC)    =   0.0000    
       ELAPSED TOTAL CPU TIME (SEC) =   0.0000    
       ELAPSED WALLCLOCK TIME (SEC) =          0

               CONVERGENCE CHECKS FOR EQUILIBRIUM ITERATION     1


 AVERAGE FORCE                      1.298E-02   TIME AVG. FORCE       1.474E-02
 LARGEST RESIDUAL FORCE             2.872E-04   AT NODE         10   DOF  1
   INSTANCE: ELEM1-1                                                                         
 LARGEST INCREMENT OF DISP.         1.500E-04   AT NODE          1   DOF  2
   INSTANCE: ELEM1-1                                                                         
 LARGEST CORRECTION TO DISP.       -6.541E-06   AT NODE          8   DOF  1
   INSTANCE: ELEM1-1                                                                         
          FORCE     EQUILIBRIUM NOT ACHIEVED WITHIN TOLERANCE.

  NUMBER OF EQUATIONS =       60     NUMBER OF FLOATING PT. OPERATIONS =  7.38E+04

     CHECK POINT   START OF SOLVER    

     CHECK POINT  END OF SOLVER       

       ELAPSED USER TIME (SEC)      =   0.0000    
       ELAPSED SYSTEM TIME (SEC)    =   0.0000    
       ELAPSED TOTAL CPU TIME (SEC) =   0.0000    
       ELAPSED WALLCLOCK TIME (SEC) =          0

               CONVERGENCE CHECKS FOR EQUILIBRIUM ITERATION     2


 AVERAGE FORCE                      3.850E-02   TIME AVG. FORCE       2.112E-02
 LARGEST RESIDUAL FORCE             8.239E-08   AT NODE         12   DOF  1
   INSTANCE: ELEM1-1                                                                         
 LARGEST INCREMENT OF DISP.         1.500E-04   AT NODE          1   DOF  2
   INSTANCE: ELEM1-1                                                                         
 LARGEST CORRECTION TO DISP.        1.192E-07   AT NODE          8   DOF  1
   INSTANCE: ELEM1-1                                                                         
          THE FORCE     EQUILIBRIUM EQUATIONS HAVE CONVERGED

 ITERATION SUMMARY FOR THE INCREMENT:   2 TOTAL ITERATIONS, OF WHICH
   0 ARE SEVERE DISCONTINUITY ITERATIONS AND  2 ARE EQUILIBRIUM ITERATIONS.

 TIME INCREMENT COMPLETED  5.000E-02,  FRACTION OF STEP COMPLETED  0.200    
 STEP TIME COMPLETED       0.200    ,  TOTAL TIME COMPLETED        0.200    


  INCREMENT     5 STARTS. ATTEMPT NUMBER  1, TIME INCREMENT  5.000E-02

  NUMBER OF EQUATIONS =       60     NUMBER OF FLOATING PT. OPERATIONS =  7.38E+04

     CHECK POINT   START OF SOLVER    

     CHECK POINT  END OF SOLVER       

       ELAPSED USER TIME (SEC)      =   0.0000    
       ELAPSED SYSTEM TIME (SEC)    =   0.0000    
       ELAPSED TOTAL CPU TIME (SEC) =   0.0000    
       ELAPSED WALLCLOCK TIME (SEC) =          0

               CONVERGENCE CHECKS FOR EQUILIBRIUM ITERATION     1


 AVERAGE FORCE                      1.511E-02   TIME AVG. FORCE       1.992E-02
 LARGEST RESIDUAL FORCE             2.010E-04   AT NODE         10   DOF  1
   INSTANCE: ELEM1-1                                                                         
 LARGEST INCREMENT OF DISP.         1.500E-04   AT NODE          1   DOF  2
   INSTANCE: ELEM1-1                                                                         
 LARGEST CORRECTION TO DISP.       -5.100E-06   AT NODE          8   DOF  1
   INSTANCE: ELEM1-1                                                                         
          FORCE     EQUILIBRIUM NOT ACHIEVED WITHIN TOLERANCE.

  NUMBER OF EQUATIONS =       60     NUMBER OF FLOATING PT. OPERATIONS =  7.38E+04

     CHECK POINT   START OF SOLVER    

     CHECK POINT  END OF SOLVER       

       ELAPSED USER TIME (SEC)      =   0.0000    
       ELAPSED SYSTEM TIME (SEC)    =   0.0000    
       ELAPSED TOTAL CPU TIME (SEC) =   0.0000    
       ELAPSED WALLCLOCK TIME (SEC) =          0

               CONVERGENCE CHECKS FOR EQUILIBRIUM ITERATION     2


 AVERAGE FORCE                      4.503E-02   TIME AVG. FORCE       2.591E-02
 LARGEST RESIDUAL FORCE             4.344E-08   AT NODE         15   DOF  3
   INSTANCE: ELEM1-1                                                                         
 LARGEST INCREMENT OF DISP.         1.500E-04   AT NODE          1   DOF  2
   INSTANCE: ELEM1-1                                                                         
 LARGEST CORRECTION TO DISP.        7.450E-08   AT NODE          8   DOF  1
   INSTANCE: ELEM1-1                                                                         
          THE FORCE     EQUILIBRIUM EQUATIONS HAVE CONVERGED

 ITERATION SUMMARY FOR THE INCREMENT:   2 TOTAL ITERATIONS, OF WHICH
   0 ARE SEVERE DISCONTINUITY ITERATIONS AND  2 ARE EQUILIBRIUM ITERATIONS.

 TIME INCREMENT COMPLETED  5.000E-02,  FRACTION OF STEP COMPLETED  0.250    
 STEP TIME COMPLETED       0.250    ,  TOTAL TIME COMPLETED        0.250    


  INCREMENT     6 STARTS. ATTEMPT NUMBER  1, TIME INCREMENT  5.000E-02

  NUMBER OF EQUATIONS =       60     NUMBER OF FLOATING PT. OPERATIONS =  7.38E+04

     CHECK POINT   START OF SOLVER    

     CHECK POINT  END OF SOLVER       

       ELAPSED USER TIME (SEC)      =   0.0000    
       ELAPSED SYSTEM TIME (SEC)    =   0.0000    
       ELAPSED TOTAL CPU TIME (SEC) =   0.0000    
       ELAPSED WALLCLOCK TIME (SEC) =          0

               CONVERGENCE CHECKS FOR EQUILIBRIUM ITERATION     1


 AVERAGE FORCE                      1.707E-02   TIME AVG. FORCE       2.443E-02
 LARGEST RESIDUAL FORCE             1.452E-04   AT NODE         10   DOF  3
   INSTANCE: ELEM1-1                                                                         
 LARGEST INCREMENT OF DISP.         1.500E-04   AT NODE          1   DOF  2
   INSTANCE: ELEM1-1                                                                         
 LARGEST CORRECTION TO DISP.       -4.063E-06   AT NODE          8   DOF  1
   INSTANCE: ELEM1-1                                                                         
          FORCE     EQUILIBRIUM NOT ACHIEVED WITHIN TOLERANCE.

  NUMBER OF EQUATIONS =       60     NUMBER OF FLOATING PT. OPERATIONS =  7.38E+04

     CHECK POINT   START OF SOLVER    

     CHECK POINT  END OF SOLVER       

       ELAPSED USER TIME (SEC)      =   0.0000    
       ELAPSED SYSTEM TIME (SEC)    =   0.0000    
       ELAPSED TOTAL CPU TIME (SEC) =   0.0000    
       ELAPSED WALLCLOCK TIME (SEC) =          0

               CONVERGENCE CHECKS FOR EQUILIBRIUM ITERATION     2


 AVERAGE FORCE                      5.100E-02   TIME AVG. FORCE       3.009E-02
 LARGEST RESIDUAL FORCE             2.515E-08   AT NODE         12   DOF  1
   INSTANCE: ELEM1-1                                                                         
 LARGEST INCREMENT OF DISP.         1.500E-04   AT NODE          1   DOF  2
   INSTANCE: ELEM1-1                                                                         
 LARGEST CORRECTION TO DISP.        4.844E-08   AT NODE          8   DOF  1
   INSTANCE: ELEM1-1                                                                         
          THE FORCE     EQUILIBRIUM EQUATIONS HAVE CONVERGED

 ITERATION SUMMARY FOR THE INCREMENT:   2 TOTAL ITERATIONS, OF WHICH
   0 ARE SEVERE DISCONTINUITY ITERATIONS AND  2 ARE EQUILIBRIUM ITERATIONS.

 TIME INCREMENT COMPLETED  5.000E-02,  FRACTION OF STEP COMPLETED  0.300    
 STEP TIME COMPLETED       0.300    ,  TOTAL TIME COMPLETED        0.300    


  INCREMENT     7 STARTS. ATTEMPT NUMBER  1, TIME INCREMENT  5.000E-02

  NUMBER OF EQUATIONS =       60     NUMBER OF FLOATING PT. OPERATIONS =  7.38E+04

     CHECK POINT   START OF SOLVER    

     CHECK POINT  END OF SOLVER       

       ELAPSED USER TIME (SEC)      =   0.0000    
       ELAPSED SYSTEM TIME (SEC)    =   0.0000    
       ELAPSED TOTAL CPU TIME (SEC) =   0.0000    
       ELAPSED WALLCLOCK TIME (SEC) =          0

               CONVERGENCE CHECKS FOR EQUILIBRIUM ITERATION     1


 AVERAGE FORCE                      1.890E-02   TIME AVG. FORCE       2.849E-02
 LARGEST RESIDUAL FORCE             1.076E-04   AT NODE         10   DOF  3
   INSTANCE: ELEM1-1                                                                         
 LARGEST INCREMENT OF DISP.         1.500E-04   AT NODE          1   DOF  2
   INSTANCE: ELEM1-1                                                                         
 LARGEST CORRECTION TO DISP.       -3.295E-06   AT NODE          8   DOF  3
   INSTANCE: ELEM1-1                                                                         
 ESTIMATE OF DISP.    CORRECTION    3.223E-08
 FORCE     EQUILIB. ACCEPTED BASED ON SMALL RESIDUAL AND ESTIMATED CORRECTION

 ITERATION SUMMARY FOR THE INCREMENT:   1 TOTAL ITERATIONS, OF WHICH
   0 ARE SEVERE DISCONTINUITY ITERATIONS AND  1 ARE EQUILIBRIUM ITERATIONS.

 TIME INCREMENT COMPLETED  5.000E-02,  FRACTION OF STEP COMPLETED  0.350    
 STEP TIME COMPLETED       0.350    ,  TOTAL TIME COMPLETED        0.350    


  INCREMENT     8 STARTS. ATTEMPT NUMBER  1, TIME INCREMENT  5.000E-02

  NUMBER OF EQUATIONS =       60     NUMBER OF FLOATING PT. OPERATIONS =  7.38E+04

     CHECK POINT   START OF SOLVER    

     CHECK POINT  END OF SOLVER       

       ELAPSED USER TIME (SEC)      =   0.0000    
       ELAPSED SYSTEM TIME (SEC)    =   0.0000    
       ELAPSED TOTAL CPU TIME (SEC) =   0.0000    
       ELAPSED WALLCLOCK TIME (SEC) =          0

               CONVERGENCE CHECKS FOR EQUILIBRIUM ITERATION     1


 AVERAGE FORCE                      2.062E-02   TIME AVG. FORCE       2.751E-02
 LARGEST RESIDUAL FORCE             7.806E-05   AT NODE         10   DOF  1
   INSTANCE: ELEM1-1                                                                         
 LARGEST INCREMENT OF DISP.         1.500E-04   AT NODE          1   DOF  2
   INSTANCE: ELEM1-1                                                                         
 LARGEST CORRECTION TO DISP.       -2.648E-06   AT NODE          6   DOF  1
   INSTANCE: ELEM1-1                                                                         
 ESTIMATE OF DISP.    CORRECTION    2.113E-08
 FORCE     EQUILIB. ACCEPTED BASED ON SMALL RESIDUAL AND ESTIMATED CORRECTION

 ITERATION SUMMARY FOR THE INCREMENT:   1 TOTAL ITERATIONS, OF WHICH
   0 ARE SEVERE DISCONTINUITY ITERATIONS AND  1 ARE EQUILIBRIUM ITERATIONS.

 TIME INCREMENT COMPLETED  5.000E-02,  FRACTION OF STEP COMPLETED  0.400    
 STEP TIME COMPLETED       0.400    ,  TOTAL TIME COMPLETED        0.400    


  INCREMENT     9 STARTS. ATTEMPT NUMBER  1, TIME INCREMENT  5.000E-02

  NUMBER OF EQUATIONS =       60     NUMBER OF FLOATING PT. OPERATIONS =  7.38E+04

     CHECK POINT   START OF SOLVER    

     CHECK POINT  END OF SOLVER       

       ELAPSED USER TIME (SEC)      =   0.0000    
       ELAPSED SYSTEM TIME (SEC)    =   0.0000    
       ELAPSED TOTAL CPU TIME (SEC) =   0.0000    
       ELAPSED WALLCLOCK TIME (SEC) =          0

               CONVERGENCE CHECKS FOR EQUILIBRIUM ITERATION     1


 AVERAGE FORCE                      2.226E-02   TIME AVG. FORCE       2.692E-02
 LARGEST RESIDUAL FORCE             6.251E-05   AT NODE         10   DOF  3
   INSTANCE: ELEM1-1                                                                         
 LARGEST INCREMENT OF DISP.         1.500E-04   AT NODE          1   DOF  2
   INSTANCE: ELEM1-1                                                                         
 LARGEST CORRECTION TO DISP.       -2.250E-06   AT NODE          7   DOF  3
   INSTANCE: ELEM1-1                                                                         
 ESTIMATE OF DISP.    CORRECTION    1.538E-08
 FORCE     EQUILIB. ACCEPTED BASED ON SMALL RESIDUAL AND ESTIMATED CORRECTION

 ITERATION SUMMARY FOR THE INCREMENT:   1 TOTAL ITERATIONS, OF WHICH
   0 ARE SEVERE DISCONTINUITY ITERATIONS AND  1 ARE EQUILIBRIUM ITERATIONS.

 TIME INCREMENT COMPLETED  5.000E-02,  FRACTION OF STEP COMPLETED  0.450    
 STEP TIME COMPLETED       0.450    ,  TOTAL TIME COMPLETED        0.450    


  INCREMENT    10 STARTS. ATTEMPT NUMBER  1, TIME INCREMENT  5.000E-02

  NUMBER OF EQUATIONS =       60     NUMBER OF FLOATING PT. OPERATIONS =  7.38E+04

     CHECK POINT   START OF SOLVER    

     CHECK POINT  END OF SOLVER       

       ELAPSED USER TIME (SEC)      =   0.0000    
       ELAPSED SYSTEM TIME (SEC)    =   0.0000    
       ELAPSED TOTAL CPU TIME (SEC) =   0.0000    
       ELAPSED WALLCLOCK TIME (SEC) =          0

               CONVERGENCE CHECKS FOR EQUILIBRIUM ITERATION     1


 AVERAGE FORCE                      2.383E-02   TIME AVG. FORCE       2.661E-02
 LARGEST RESIDUAL FORCE             4.887E-05   AT NODE         10   DOF  3
   INSTANCE: ELEM1-1                                                                         
 LARGEST INCREMENT OF DISP.         1.500E-04   AT NODE          1   DOF  2
   INSTANCE: ELEM1-1                                                                         
 LARGEST CORRECTION TO DISP.       -1.896E-06   AT NODE          6   DOF  1
   INSTANCE: ELEM1-1                                                                         
 ESTIMATE OF DISP.    CORRECTION    1.097E-08
 FORCE     EQUILIB. ACCEPTED BASED ON SMALL RESIDUAL AND ESTIMATED CORRECTION

 ITERATION SUMMARY FOR THE INCREMENT:   1 TOTAL ITERATIONS, OF WHICH
   0 ARE SEVERE DISCONTINUITY ITERATIONS AND  1 ARE EQUILIBRIUM ITERATIONS.

 TIME INCREMENT COMPLETED  5.000E-02,  FRACTION OF STEP COMPLETED  0.500    
 STEP TIME COMPLETED       0.500    ,  TOTAL TIME COMPLETED        0.500    


  INCREMENT    11 STARTS. ATTEMPT NUMBER  1, TIME INCREMENT  5.000E-02

  NUMBER OF EQUATIONS =       60     NUMBER OF FLOATING PT. OPERATIONS =  7.38E+04

     CHECK POINT   START OF SOLVER    

     CHECK POINT  END OF SOLVER       

       ELAPSED USER TIME (SEC)      =   0.0000    
       ELAPSED SYSTEM TIME (SEC)    =   0.0000    
       ELAPSED TOTAL CPU TIME (SEC) =   0.0000    
       ELAPSED WALLCLOCK TIME (SEC) =          0

               CONVERGENCE CHECKS FOR EQUILIBRIUM ITERATION     1


 AVERAGE FORCE                      2.533E-02   TIME AVG. FORCE       2.650E-02
 LARGEST RESIDUAL FORCE             3.885E-05   AT NODE         10   DOF  3
   INSTANCE: ELEM1-1                                                                         
 LARGEST INCREMENT OF DISP.         1.500E-04   AT NODE          1   DOF  2
   INSTANCE: ELEM1-1                                                                         
 LARGEST CORRECTION TO DISP.       -1.615E-06   AT NODE          8   DOF  3
   INSTANCE: ELEM1-1                                                                         
 ESTIMATE OF DISP.    CORRECTION    7.996E-09
 FORCE     EQUILIB. ACCEPTED BASED ON SMALL RESIDUAL AND ESTIMATED CORRECTION

 ITERATION SUMMARY FOR THE INCREMENT:   1 TOTAL ITERATIONS, OF WHICH
   0 ARE SEVERE DISCONTINUITY ITERATIONS AND  1 ARE EQUILIBRIUM ITERATIONS.

 TIME INCREMENT COMPLETED  5.000E-02,  FRACTION OF STEP COMPLETED  0.550    
 STEP TIME COMPLETED       0.550    ,  TOTAL TIME COMPLETED        0.550    


  INCREMENT    12 STARTS. ATTEMPT NUMBER  1, TIME INCREMENT  5.000E-02

  NUMBER OF EQUATIONS =       60     NUMBER OF FLOATING PT. OPERATIONS =  7.38E+04

     CHECK POINT   START OF SOLVER    

     CHECK POINT  END OF SOLVER       

       ELAPSED USER TIME (SEC)      =   0.0000    
       ELAPSED SYSTEM TIME (SEC)    =   0.0000    
       ELAPSED TOTAL CPU TIME (SEC) =   0.0000    
       ELAPSED WALLCLOCK TIME (SEC) =          0

               CONVERGENCE CHECKS FOR EQUILIBRIUM ITERATION     1


 AVERAGE FORCE                      2.678E-02   TIME AVG. FORCE       2.652E-02
 LARGEST RESIDUAL FORCE             3.123E-05   AT NODE         10   DOF  3
   INSTANCE: ELEM1-1                                                                         
 LARGEST INCREMENT OF DISP.         1.500E-04   AT NODE          1   DOF  2
   INSTANCE: ELEM1-1                                                                         
 LARGEST CORRECTION TO DISP.       -1.387E-06   AT NODE          3   DOF  3
   INSTANCE: ELEM1-1                                                                         
          THE FORCE     EQUILIBRIUM EQUATIONS HAVE CONVERGED

 ITERATION SUMMARY FOR THE INCREMENT:   1 TOTAL ITERATIONS, OF WHICH
   0 ARE SEVERE DISCONTINUITY ITERATIONS AND  1 ARE EQUILIBRIUM ITERATIONS.

 TIME INCREMENT COMPLETED  5.000E-02,  FRACTION OF STEP COMPLETED  0.600    
 STEP TIME COMPLETED       0.600    ,  TOTAL TIME COMPLETED        0.600    


  INCREMENT    13 STARTS. ATTEMPT NUMBER  1, TIME INCREMENT  5.000E-02

  NUMBER OF EQUATIONS =       60     NUMBER OF FLOATING PT. OPERATIONS =  7.38E+04

     CHECK POINT   START OF SOLVER    

     CHECK POINT  END OF SOLVER       

       ELAPSED USER TIME (SEC)      =   0.0000    
       ELAPSED SYSTEM TIME (SEC)    =   0.0000    
       ELAPSED TOTAL CPU TIME (SEC) =   0.0000    
       ELAPSED WALLCLOCK TIME (SEC) =          0

               CONVERGENCE CHECKS FOR EQUILIBRIUM ITERATION     1


 AVERAGE FORCE                      2.818E-02   TIME AVG. FORCE       2.665E-02
 LARGEST RESIDUAL FORCE             2.537E-05   AT NODE         10   DOF  3
   INSTANCE: ELEM1-1                                                                         
 LARGEST INCREMENT OF DISP.         1.500E-04   AT NODE          1   DOF  2
   INSTANCE: ELEM1-1                                                                         
 LARGEST CORRECTION TO DISP.       -1.200E-06   AT NODE          8   DOF  3
   INSTANCE: ELEM1-1                                                                         
          THE FORCE     EQUILIBRIUM EQUATIONS HAVE CONVERGED

 ITERATION SUMMARY FOR THE INCREMENT:   1 TOTAL ITERATIONS, OF WHICH
   0 ARE SEVERE DISCONTINUITY ITERATIONS AND  1 ARE EQUILIBRIUM ITERATIONS.

 TIME INCREMENT COMPLETED  5.000E-02,  FRACTION OF STEP COMPLETED  0.650    
 STEP TIME COMPLETED       0.650    ,  TOTAL TIME COMPLETED        0.650    


  INCREMENT    14 STARTS. ATTEMPT NUMBER  1, TIME INCREMENT  5.000E-02

  NUMBER OF EQUATIONS =       60     NUMBER OF FLOATING PT. OPERATIONS =  7.38E+04

     CHECK POINT   START OF SOLVER    

     CHECK POINT  END OF SOLVER       

       ELAPSED USER TIME (SEC)      =   0.0000    
       ELAPSED SYSTEM TIME (SEC)    =   0.0000    
       ELAPSED TOTAL CPU TIME (SEC) =   0.0000    
       ELAPSED WALLCLOCK TIME (SEC) =          0

               CONVERGENCE CHECKS FOR EQUILIBRIUM ITERATION     1


 AVERAGE FORCE                      2.954E-02   TIME AVG. FORCE       2.685E-02
 LARGEST RESIDUAL FORCE             2.081E-05   AT NODE         10   DOF  1
   INSTANCE: ELEM1-1                                                                         
 LARGEST INCREMENT OF DISP.         1.500E-04   AT NODE          1   DOF  2
   INSTANCE: ELEM1-1                                                                         
 LARGEST CORRECTION TO DISP.       -1.045E-06   AT NODE         15   DOF  3
   INSTANCE: ELEM1-1                                                                         
          THE FORCE     EQUILIBRIUM EQUATIONS HAVE CONVERGED

 ITERATION SUMMARY FOR THE INCREMENT:   1 TOTAL ITERATIONS, OF WHICH
   0 ARE SEVERE DISCONTINUITY ITERATIONS AND  1 ARE EQUILIBRIUM ITERATIONS.

 TIME INCREMENT COMPLETED  5.000E-02,  FRACTION OF STEP COMPLETED  0.700    
 STEP TIME COMPLETED       0.700    ,  TOTAL TIME COMPLETED        0.700    


  INCREMENT    15 STARTS. ATTEMPT NUMBER  1, TIME INCREMENT  5.000E-02

  NUMBER OF EQUATIONS =       60     NUMBER OF FLOATING PT. OPERATIONS =  7.38E+04

     CHECK POINT   START OF SOLVER    

     CHECK POINT  END OF SOLVER       

       ELAPSED USER TIME (SEC)      =   0.0000    
       ELAPSED SYSTEM TIME (SEC)    =   0.0000    
       ELAPSED TOTAL CPU TIME (SEC) =   0.0000    
       ELAPSED WALLCLOCK TIME (SEC) =          0

               CONVERGENCE CHECKS FOR EQUILIBRIUM ITERATION     1


 AVERAGE FORCE                      3.086E-02   TIME AVG. FORCE       2.712E-02
 LARGEST RESIDUAL FORCE             1.721E-05   AT NODE         10   DOF  1
   INSTANCE: ELEM1-1                                                                         
 LARGEST INCREMENT OF DISP.         1.500E-04   AT NODE          1   DOF  2
   INSTANCE: ELEM1-1                                                                         
 LARGEST CORRECTION TO DISP.       -9.161E-07   AT NODE          5   DOF  1
   INSTANCE: ELEM1-1                                                                         
          THE FORCE     EQUILIBRIUM EQUATIONS HAVE CONVERGED

 ITERATION SUMMARY FOR THE INCREMENT:   1 TOTAL ITERATIONS, OF WHICH
   0 ARE SEVERE DISCONTINUITY ITERATIONS AND  1 ARE EQUILIBRIUM ITERATIONS.

 TIME INCREMENT COMPLETED  5.000E-02,  FRACTION OF STEP COMPLETED  0.750    
 STEP TIME COMPLETED       0.750    ,  TOTAL TIME COMPLETED        0.750    


  INCREMENT    16 STARTS. ATTEMPT NUMBER  1, TIME INCREMENT  5.000E-02

  NUMBER OF EQUATIONS =       60     NUMBER OF FLOATING PT. OPERATIONS =  7.38E+04

     CHECK POINT   START OF SOLVER    

     CHECK POINT  END OF SOLVER       

       ELAPSED USER TIME (SEC)      =   0.0000    
       ELAPSED SYSTEM TIME (SEC)    =   0.0000    
       ELAPSED TOTAL CPU TIME (SEC) =   0.0000    
       ELAPSED WALLCLOCK TIME (SEC) =          0

               CONVERGENCE CHECKS FOR EQUILIBRIUM ITERATION     1


 AVERAGE FORCE                      3.215E-02   TIME AVG. FORCE       2.744E-02
 LARGEST RESIDUAL FORCE             1.435E-05   AT NODE         10   DOF  1
   INSTANCE: ELEM1-1                                                                         
 LARGEST INCREMENT OF DISP.         1.500E-04   AT NODE          1   DOF  2
   INSTANCE: ELEM1-1                                                                         
 LARGEST CORRECTION TO DISP.       -8.074E-07   AT NODE         10   DOF  3
   INSTANCE: ELEM1-1                                                                         
          THE FORCE     EQUILIBRIUM EQUATIONS HAVE CONVERGED

 ITERATION SUMMARY FOR THE INCREMENT:   1 TOTAL ITERATIONS, OF WHICH
   0 ARE SEVERE DISCONTINUITY ITERATIONS AND  1 ARE EQUILIBRIUM ITERATIONS.

 TIME INCREMENT COMPLETED  5.000E-02,  FRACTION OF STEP COMPLETED  0.800    
 STEP TIME COMPLETED       0.800    ,  TOTAL TIME COMPLETED        0.800    


  INCREMENT    17 STARTS. ATTEMPT NUMBER  1, TIME INCREMENT  5.000E-02

  NUMBER OF EQUATIONS =       60     NUMBER OF FLOATING PT. OPERATIONS =  7.38E+04

     CHECK POINT   START OF SOLVER    

     CHECK POINT  END OF SOLVER       

       ELAPSED USER TIME (SEC)      =   0.0000    
       ELAPSED SYSTEM TIME (SEC)    =   0.0000    
       ELAPSED TOTAL CPU TIME (SEC) =   0.0000    
       ELAPSED WALLCLOCK TIME (SEC) =          0

               CONVERGENCE CHECKS FOR EQUILIBRIUM ITERATION     1


 AVERAGE FORCE                      3.340E-02   TIME AVG. FORCE       2.779E-02
 LARGEST RESIDUAL FORCE             1.206E-05   AT NODE         10   DOF  1
   INSTANCE: ELEM1-1                                                                         
 LARGEST INCREMENT OF DISP.         1.500E-04   AT NODE          1   DOF  2
   INSTANCE: ELEM1-1                                                                         
 LARGEST CORRECTION TO DISP.       -7.154E-07   AT NODE          7   DOF  3
   INSTANCE: ELEM1-1                                                                         
          THE FORCE     EQUILIBRIUM EQUATIONS HAVE CONVERGED

 ITERATION SUMMARY FOR THE INCREMENT:   1 TOTAL ITERATIONS, OF WHICH
   0 ARE SEVERE DISCONTINUITY ITERATIONS AND  1 ARE EQUILIBRIUM ITERATIONS.

 TIME INCREMENT COMPLETED  5.000E-02,  FRACTION OF STEP COMPLETED  0.850    
 STEP TIME COMPLETED       0.850    ,  TOTAL TIME COMPLETED        0.850    


  INCREMENT    18 STARTS. ATTEMPT NUMBER  1, TIME INCREMENT  5.000E-02

  NUMBER OF EQUATIONS =       60     NUMBER OF FLOATING PT. OPERATIONS =  7.38E+04

     CHECK POINT   START OF SOLVER    

     CHECK POINT  END OF SOLVER       

       ELAPSED USER TIME (SEC)      =  0.10000    
       ELAPSED SYSTEM TIME (SEC)    =   0.0000    
       ELAPSED TOTAL CPU TIME (SEC) =  0.10000    
       ELAPSED WALLCLOCK TIME (SEC) =          0

               CONVERGENCE CHECKS FOR EQUILIBRIUM ITERATION     1


 AVERAGE FORCE                      3.462E-02   TIME AVG. FORCE       2.817E-02
 LARGEST RESIDUAL FORCE             1.019E-05   AT NODE         10   DOF  1
   INSTANCE: ELEM1-1                                                                         
 LARGEST INCREMENT OF DISP.         1.500E-04   AT NODE          1   DOF  2
   INSTANCE: ELEM1-1                                                                         
 LARGEST CORRECTION TO DISP.       -6.368E-07   AT NODE          5   DOF  1
   INSTANCE: ELEM1-1                                                                         
          THE FORCE     EQUILIBRIUM EQUATIONS HAVE CONVERGED

 ITERATION SUMMARY FOR THE INCREMENT:   1 TOTAL ITERATIONS, OF WHICH
   0 ARE SEVERE DISCONTINUITY ITERATIONS AND  1 ARE EQUILIBRIUM ITERATIONS.

 TIME INCREMENT COMPLETED  5.000E-02,  FRACTION OF STEP COMPLETED  0.900    
 STEP TIME COMPLETED       0.900    ,  TOTAL TIME COMPLETED        0.900    


  INCREMENT    19 STARTS. ATTEMPT NUMBER  1, TIME INCREMENT  5.000E-02

  NUMBER OF EQUATIONS =       60     NUMBER OF FLOATING PT. OPERATIONS =  7.38E+04

     CHECK POINT   START OF SOLVER    

     CHECK POINT  END OF SOLVER       

       ELAPSED USER TIME (SEC)      =   0.0000    
       ELAPSED SYSTEM TIME (SEC)    =   0.0000    
       ELAPSED TOTAL CPU TIME (SEC) =   0.0000    
       ELAPSED WALLCLOCK TIME (SEC) =          0

               CONVERGENCE CHECKS FOR EQUILIBRIUM ITERATION     1


 AVERAGE FORCE                      3.582E-02   TIME AVG. FORCE       2.857E-02
 LARGEST RESIDUAL FORCE             8.671E-06   AT NODE         10   DOF  3
   INSTANCE: ELEM1-1                                                                         
 LARGEST INCREMENT OF DISP.         1.500E-04   AT NODE          1   DOF  2
   INSTANCE: ELEM1-1                                                                         
 LARGEST CORRECTION TO DISP.       -5.693E-07   AT NODE          8   DOF  1
   INSTANCE: ELEM1-1                                                                         
          THE FORCE     EQUILIBRIUM EQUATIONS HAVE CONVERGED

 ITERATION SUMMARY FOR THE INCREMENT:   1 TOTAL ITERATIONS, OF WHICH
   0 ARE SEVERE DISCONTINUITY ITERATIONS AND  1 ARE EQUILIBRIUM ITERATIONS.

 TIME INCREMENT COMPLETED  5.000E-02,  FRACTION OF STEP COMPLETED  0.950    
 STEP TIME COMPLETED       0.950    ,  TOTAL TIME COMPLETED        0.950    


  INCREMENT    20 STARTS. ATTEMPT NUMBER  1, TIME INCREMENT  5.000E-02

  NUMBER OF EQUATIONS =       60     NUMBER OF FLOATING PT. OPERATIONS =  7.38E+04

     CHECK POINT   START OF SOLVER    

     CHECK POINT  END OF SOLVER       

       ELAPSED USER TIME (SEC)      =   0.0000    
       ELAPSED SYSTEM TIME (SEC)    =   0.0000    
       ELAPSED TOTAL CPU TIME (SEC) =   0.0000    
       ELAPSED WALLCLOCK TIME (SEC) =          0

               CONVERGENCE CHECKS FOR EQUILIBRIUM ITERATION     1


 AVERAGE FORCE                      3.699E-02   TIME AVG. FORCE       2.899E-02
 LARGEST RESIDUAL FORCE             7.418E-06   AT NODE         10   DOF  1
   INSTANCE: ELEM1-1                                                                         
 LARGEST INCREMENT OF DISP.         1.500E-04   AT NODE          1   DOF  2
   INSTANCE: ELEM1-1                                                                         
 LARGEST CORRECTION TO DISP.       -5.111E-07   AT NODE          8   DOF  3
   INSTANCE: ELEM1-1                                                                         
          THE FORCE     EQUILIBRIUM EQUATIONS HAVE CONVERGED

 ITERATION SUMMARY FOR THE INCREMENT:   1 TOTAL ITERATIONS, OF WHICH
   0 ARE SEVERE DISCONTINUITY ITERATIONS AND  1 ARE EQUILIBRIUM ITERATIONS.

 TIME INCREMENT COMPLETED  5.000E-02,  FRACTION OF STEP COMPLETED   1.00    
 STEP TIME COMPLETED        1.00    ,  TOTAL TIME COMPLETED         1.00    


          THE ANALYSIS HAS BEEN COMPLETED



     ANALYSIS SUMMARY:
     TOTAL OF         20  INCREMENTS
                       0  CUTBACKS IN AUTOMATIC INCREMENTATION
                      27  ITERATIONS INCLUDING CONTACT ITERATIONS IF PRESENT
                      27  PASSES THROUGH THE EQUATION SOLVER OF WHICH 
                      27  INVOLVE MATRIX DECOMPOSITION, INCLUDING
                       0  DECOMPOSITION(S) OF THE MASS MATRIX
                       1  REORDERING OF EQUATIONS TO MINIMIZE WAVEFRONT
                       0  ADDITIONAL RESIDUAL EVALUATIONS FOR LINE SEARCHES
                       0  ADDITIONAL OPERATOR EVALUATIONS FOR LINE SEARCHES
                       0  WARNING MESSAGES DURING USER INPUT PROCESSING
                       0  WARNING MESSAGES DURING ANALYSIS
                       0  ANALYSIS WARNINGS ARE NUMERICAL PROBLEM MESSAGES
                       0  ANALYSIS WARNINGS ARE NEGATIVE EIGENVALUE MESSAGES
                       0  ERROR MESSAGES



     JOB TIME SUMMARY
       USER TIME (SEC)      =  0.20000    
       SYSTEM TIME (SEC)    =  0.10000    
       TOTAL CPU TIME (SEC) =  0.30000    
       WALLCLOCK TIME (SEC) =          1
