1

   Abaqus 6.13-1                                  Date 17-ÎåÔÂ-2015   Time 14:27:09
   For use by  under license from Dassault Systemes or its subsidiary.

                                                                                 
                                                                                 
 STEP    1     INCREMENT     1     STEP TIME    0.00    


                        S T E P       1     S T A T I C   A N A L Y S I S


                                                                                          

          FIXED TIME INCREMENTS
          TIME INCREMENT IS                                    5.000E-02
          TIME PERIOD IS                                        1.00    

     LINEAR EQUATION SOLVER TYPE         DIRECT SPARSE

 CONVERGENCE TOLERANCE PARAMETERS FOR FORCE    
     CRITERION FOR RESIDUAL FORCE     FOR A NONLINEAR PROBLEM          5.000E-03
     CRITERION FOR DISP.    CORRECTION IN A NONLINEAR PROBLEM          1.000E-02
     INITIAL VALUE OF TIME AVERAGE FORCE                               1.000E-02
     AVERAGE FORCE     IS TIME AVERAGE FORCE    
     ALTERNATE CRIT. FOR RESIDUAL FORCE     FOR A NONLINEAR PROBLEM    2.000E-02
     CRITERION FOR ZERO FORCE     RELATIVE TO TIME AVRG. FORCE         1.000E-05
     CRITERION FOR RESIDUAL FORCE     WHEN THERE IS ZERO FLUX          1.000E-05
     CRITERION FOR DISP.    CORRECTION WHEN THERE IS ZERO FLUX         1.000E-03
     CRITERION FOR RESIDUAL FORCE     FOR A LINEAR INCREMENT           1.000E-08
     FIELD CONVERSION RATIO                                             1.00    
     CRITERION FOR ZERO FORCE     REL. TO TIME AVRG. MAX. FORCE        1.000E-05
     CRITERION FOR ZERO DISP.    RELATIVE TO CHARACTERISTIC LENGTH     1.000E-08

     VOLUMETRIC STRAIN COMPATIBILITY TOLERANCE FOR HYBRID SOLIDS       1.000E-05
     AXIAL STRAIN COMPATIBILITY TOLERANCE FOR HYBRID BEAMS             1.000E-05
     TRANS. SHEAR STRAIN COMPATIBILITY TOLERANCE FOR HYBRID BEAMS      1.000E-05
     SOFT CONTACT CONSTRAINT COMPATIBILITY TOLERANCE FOR P>P0          5.000E-03
     SOFT CONTACT CONSTRAINT COMPATIBILITY TOLERANCE FOR P=0.0         0.100    
     CONTACT FORCE ERROR TOLERANCE FOR CONVERT SDI=YES                 1.00    
     DISPLACEMENT COMPATIBILITY TOLERANCE FOR DCOUP ELEMENTS           1.000E-05
     ROTATION COMPATIBILITY TOLERANCE FOR DCOUP ELEMENTS               1.000E-05

 EQUILIBRIUM WILL BE CHECKED FOR SEVERE DISCONTINUITY ITERATIONS

 ITERATION CONTROL PARAMETERS:
     FIRST EQUILIBRIUM ITERATION FOR CONSECUTIVE DIVERGENCE CHECK              4
     EQUILIBRIUM ITERATION AFTER WHICH ALTERNATE RESIDUAL IS USED              9
     MAXIMUM EQUILIBRIUM ITERATIONS ALLOWED                                   16
     MAXIMUM ITERATIONS FOR SEVERE DISCONTINUITIES                            12
     GLOBAL STABILIZATION CONTROL IS NOT USED

          PRINT OF INCREMENT NUMBER, TIME, ETC., EVERY    1  INCREMENTS

     THE MAXIMUM NUMBER OF INCREMENTS IN THIS STEP IS                     100

          LARGE DISPLACEMENT THEORY WILL BE USED

     LINEAR EXTRAPOLATION WILL BE USED

     CHARACTERISTIC ELEMENT LENGTH     1.000E-03

     DETAILS REGARDING ACTUAL SOLUTION WAVEFRONT REQUESTED

     DETAILED OUTPUT OF DIAGNOSTICS TO DATABASE REQUESTED

     PRINT OF INCREMENT NUMBER, TIME, ETC., TO THE MESSAGE FILE EVERY     1  INCREMENTS

     EQUATIONS ARE BEING REORDERED TO MINIMIZE WAVEFRONT

     COLLECTING MODEL CONSTRAINT INFORMATION FOR OVERCONSTRAINT CHECKS

     COLLECTING STEP CONSTRAINT INFORMATION FOR OVERCONSTRAINT CHECKS


  INCREMENT     1 STARTS. ATTEMPT NUMBER  1, TIME INCREMENT  5.000E-02

  NUMBER OF EQUATIONS =       60     NUMBER OF FLOATING PT. OPERATIONS =  7.38E+04

     CHECK POINT   START OF SOLVER    

     CHECK POINT  END OF SOLVER       

       ELAPSED USER TIME (SEC)      =   0.0000    
       ELAPSED SYSTEM TIME (SEC)    =   0.0000    
       ELAPSED TOTAL CPU TIME (SEC) =   0.0000    
       ELAPSED WALLCLOCK TIME (SEC) =          0

               CONVERGENCE CHECKS FOR EQUILIBRIUM ITERATION     1


 AVERAGE FORCE                      1.343E-03   TIME AVG. FORCE       1.343E-03
 LARGEST RESIDUAL FORCE            -6.655E-04   AT NODE         12   DOF  1
   INSTANCE: ELEM1-1                                                                         
 LARGEST INCREMENT OF DISP.        -3.750E-05   AT NODE          1   DOF  2
   INSTANCE: ELEM1-1                                                                         
 LARGEST CORRECTION TO DISP.       -3.750E-05   AT NODE          1   DOF  2
   INSTANCE: ELEM1-1                                                                         
          FORCE     EQUILIBRIUM NOT ACHIEVED WITHIN TOLERANCE.

  NUMBER OF EQUATIONS =       60     NUMBER OF FLOATING PT. OPERATIONS =  7.38E+04

     CHECK POINT   START OF SOLVER    

     CHECK POINT  END OF SOLVER       

       ELAPSED USER TIME (SEC)      =   0.0000    
       ELAPSED SYSTEM TIME (SEC)    =   0.0000    
       ELAPSED TOTAL CPU TIME (SEC) =   0.0000    
       ELAPSED WALLCLOCK TIME (SEC) =          0

               CONVERGENCE CHECKS FOR EQUILIBRIUM ITERATION     2


 AVERAGE FORCE                      1.013E-03   TIME AVG. FORCE       1.013E-03
 LARGEST RESIDUAL FORCE             4.739E-07   AT NODE         12   DOF  1
   INSTANCE: ELEM1-1                                                                         
 LARGEST INCREMENT OF DISP.        -3.750E-05   AT NODE          1   DOF  2
   INSTANCE: ELEM1-1                                                                         
 LARGEST CORRECTION TO DISP.       -5.091E-07   AT NODE          8   DOF  1
   INSTANCE: ELEM1-1                                                                         
 ESTIMATE OF DISP.    CORRECTION    3.625E-10
 FORCE     EQUILIB. ACCEPTED BASED ON SMALL RESIDUAL AND ESTIMATED CORRECTION

 ITERATION SUMMARY FOR THE INCREMENT:   2 TOTAL ITERATIONS, OF WHICH
   0 ARE SEVERE DISCONTINUITY ITERATIONS AND  2 ARE EQUILIBRIUM ITERATIONS.

 TIME INCREMENT COMPLETED  5.000E-02,  FRACTION OF STEP COMPLETED  5.000E-02
 STEP TIME COMPLETED       5.000E-02,  TOTAL TIME COMPLETED        5.000E-02


  INCREMENT     2 STARTS. ATTEMPT NUMBER  1, TIME INCREMENT  5.000E-02

  NUMBER OF EQUATIONS =       60     NUMBER OF FLOATING PT. OPERATIONS =  7.38E+04

     CHECK POINT   START OF SOLVER    

     CHECK POINT  END OF SOLVER       

       ELAPSED USER TIME (SEC)      =   0.0000    
       ELAPSED SYSTEM TIME (SEC)    =   0.0000    
       ELAPSED TOTAL CPU TIME (SEC) =   0.0000    
       ELAPSED WALLCLOCK TIME (SEC) =          0

               CONVERGENCE CHECKS FOR EQUILIBRIUM ITERATION     1


 AVERAGE FORCE                      2.642E-03   TIME AVG. FORCE       1.828E-03
 LARGEST RESIDUAL FORCE             2.025E-06   AT NODE          9   DOF  1
   INSTANCE: ELEM1-1                                                                         
 LARGEST INCREMENT OF DISP.        -3.750E-05   AT NODE          1   DOF  2
   INSTANCE: ELEM1-1                                                                         
 LARGEST CORRECTION TO DISP.       -1.084E-06   AT NODE          8   DOF  1
   INSTANCE: ELEM1-1                                                                         
 ESTIMATE OF DISP.    CORRECTION    1.626E-09
 FORCE     EQUILIB. ACCEPTED BASED ON SMALL RESIDUAL AND ESTIMATED CORRECTION

 ITERATION SUMMARY FOR THE INCREMENT:   1 TOTAL ITERATIONS, OF WHICH
   0 ARE SEVERE DISCONTINUITY ITERATIONS AND  1 ARE EQUILIBRIUM ITERATIONS.

 TIME INCREMENT COMPLETED  5.000E-02,  FRACTION OF STEP COMPLETED  0.100    
 STEP TIME COMPLETED       0.100    ,  TOTAL TIME COMPLETED        0.100    


  INCREMENT     3 STARTS. ATTEMPT NUMBER  1, TIME INCREMENT  5.000E-02

  NUMBER OF EQUATIONS =       60     NUMBER OF FLOATING PT. OPERATIONS =  7.38E+04

     CHECK POINT   START OF SOLVER    

     CHECK POINT  END OF SOLVER       

       ELAPSED USER TIME (SEC)      =   0.0000    
       ELAPSED SYSTEM TIME (SEC)    =   0.0000    
       ELAPSED TOTAL CPU TIME (SEC) =   0.0000    
       ELAPSED WALLCLOCK TIME (SEC) =          0

               CONVERGENCE CHECKS FOR EQUILIBRIUM ITERATION     1


 AVERAGE FORCE                      4.145E-03   TIME AVG. FORCE       2.600E-03
 LARGEST RESIDUAL FORCE             2.300E-06   AT NODE         12   DOF  1
   INSTANCE: ELEM1-1                                                                         
 LARGEST INCREMENT OF DISP.        -3.750E-05   AT NODE          1   DOF  2
   INSTANCE: ELEM1-1                                                                         
 LARGEST CORRECTION TO DISP.       -1.191E-06   AT NODE          7   DOF  1
   INSTANCE: ELEM1-1                                                                         
 ESTIMATE OF DISP.    CORRECTION    1.937E-09
 FORCE     EQUILIB. ACCEPTED BASED ON SMALL RESIDUAL AND ESTIMATED CORRECTION

 ITERATION SUMMARY FOR THE INCREMENT:   1 TOTAL ITERATIONS, OF WHICH
   0 ARE SEVERE DISCONTINUITY ITERATIONS AND  1 ARE EQUILIBRIUM ITERATIONS.

 TIME INCREMENT COMPLETED  5.000E-02,  FRACTION OF STEP COMPLETED  0.150    
 STEP TIME COMPLETED       0.150    ,  TOTAL TIME COMPLETED        0.150    


  INCREMENT     4 STARTS. ATTEMPT NUMBER  1, TIME INCREMENT  5.000E-02

  NUMBER OF EQUATIONS =       60     NUMBER OF FLOATING PT. OPERATIONS =  7.38E+04

     CHECK POINT   START OF SOLVER    

     CHECK POINT  END OF SOLVER       

       ELAPSED USER TIME (SEC)      =   0.0000    
       ELAPSED SYSTEM TIME (SEC)    =   0.0000    
       ELAPSED TOTAL CPU TIME (SEC) =   0.0000    
       ELAPSED WALLCLOCK TIME (SEC) =          0

               CONVERGENCE CHECKS FOR EQUILIBRIUM ITERATION     1


 AVERAGE FORCE                      5.797E-03   TIME AVG. FORCE       3.399E-03
 LARGEST RESIDUAL FORCE             2.637E-06   AT NODE         12   DOF  1
   INSTANCE: ELEM1-1                                                                         
 LARGEST INCREMENT OF DISP.        -3.750E-05   AT NODE          1   DOF  2
   INSTANCE: ELEM1-1                                                                         
 LARGEST CORRECTION TO DISP.       -1.317E-06   AT NODE          8   DOF  1
   INSTANCE: ELEM1-1                                                                         
 ESTIMATE OF DISP.    CORRECTION    2.336E-09
 FORCE     EQUILIB. ACCEPTED BASED ON SMALL RESIDUAL AND ESTIMATED CORRECTION

 ITERATION SUMMARY FOR THE INCREMENT:   1 TOTAL ITERATIONS, OF WHICH
   0 ARE SEVERE DISCONTINUITY ITERATIONS AND  1 ARE EQUILIBRIUM ITERATIONS.

 TIME INCREMENT COMPLETED  5.000E-02,  FRACTION OF STEP COMPLETED  0.200    
 STEP TIME COMPLETED       0.200    ,  TOTAL TIME COMPLETED        0.200    


  INCREMENT     5 STARTS. ATTEMPT NUMBER  1, TIME INCREMENT  5.000E-02

  NUMBER OF EQUATIONS =       60     NUMBER OF FLOATING PT. OPERATIONS =  7.38E+04

     CHECK POINT   START OF SOLVER    

     CHECK POINT  END OF SOLVER       

       ELAPSED USER TIME (SEC)      =   0.0000    
       ELAPSED SYSTEM TIME (SEC)    =   0.0000    
       ELAPSED TOTAL CPU TIME (SEC) =   0.0000    
       ELAPSED WALLCLOCK TIME (SEC) =          0

               CONVERGENCE CHECKS FOR EQUILIBRIUM ITERATION     1


 AVERAGE FORCE                      7.627E-03   TIME AVG. FORCE       4.245E-03
 LARGEST RESIDUAL FORCE             3.034E-06   AT NODE         20   DOF  3
   INSTANCE: ELEM1-1                                                                         
 LARGEST INCREMENT OF DISP.        -3.750E-05   AT NODE          1   DOF  2
   INSTANCE: ELEM1-1                                                                         
 LARGEST CORRECTION TO DISP.       -1.461E-06   AT NODE          3   DOF  3
   INSTANCE: ELEM1-1                                                                         
 ESTIMATE OF DISP.    CORRECTION    2.831E-09
 FORCE     EQUILIB. ACCEPTED BASED ON SMALL RESIDUAL AND ESTIMATED CORRECTION

 ITERATION SUMMARY FOR THE INCREMENT:   1 TOTAL ITERATIONS, OF WHICH
   0 ARE SEVERE DISCONTINUITY ITERATIONS AND  1 ARE EQUILIBRIUM ITERATIONS.

 TIME INCREMENT COMPLETED  5.000E-02,  FRACTION OF STEP COMPLETED  0.250    
 STEP TIME COMPLETED       0.250    ,  TOTAL TIME COMPLETED        0.250    


  INCREMENT     6 STARTS. ATTEMPT NUMBER  1, TIME INCREMENT  5.000E-02

  NUMBER OF EQUATIONS =       60     NUMBER OF FLOATING PT. OPERATIONS =  7.38E+04

     CHECK POINT   START OF SOLVER    

     CHECK POINT  END OF SOLVER       

       ELAPSED USER TIME (SEC)      =   0.0000    
       ELAPSED SYSTEM TIME (SEC)    =   0.0000    
       ELAPSED TOTAL CPU TIME (SEC) =   0.0000    
       ELAPSED WALLCLOCK TIME (SEC) =          0

               CONVERGENCE CHECKS FOR EQUILIBRIUM ITERATION     1


 AVERAGE FORCE                      9.668E-03   TIME AVG. FORCE       5.149E-03
 LARGEST RESIDUAL FORCE             3.510E-06   AT NODE         12   DOF  1
   INSTANCE: ELEM1-1                                                                         
 LARGEST INCREMENT OF DISP.        -3.750E-05   AT NODE          1   DOF  2
   INSTANCE: ELEM1-1                                                                         
 LARGEST CORRECTION TO DISP.       -1.628E-06   AT NODE          8   DOF  3
   INSTANCE: ELEM1-1                                                                         
 ESTIMATE OF DISP.    CORRECTION    3.459E-09
 FORCE     EQUILIB. ACCEPTED BASED ON SMALL RESIDUAL AND ESTIMATED CORRECTION

 ITERATION SUMMARY FOR THE INCREMENT:   1 TOTAL ITERATIONS, OF WHICH
   0 ARE SEVERE DISCONTINUITY ITERATIONS AND  1 ARE EQUILIBRIUM ITERATIONS.

 TIME INCREMENT COMPLETED  5.000E-02,  FRACTION OF STEP COMPLETED  0.300    
 STEP TIME COMPLETED       0.300    ,  TOTAL TIME COMPLETED        0.300    


  INCREMENT     7 STARTS. ATTEMPT NUMBER  1, TIME INCREMENT  5.000E-02

  NUMBER OF EQUATIONS =       60     NUMBER OF FLOATING PT. OPERATIONS =  7.38E+04

     CHECK POINT   START OF SOLVER    

     CHECK POINT  END OF SOLVER       

       ELAPSED USER TIME (SEC)      =   0.0000    
       ELAPSED SYSTEM TIME (SEC)    =   0.0000    
       ELAPSED TOTAL CPU TIME (SEC) =   0.0000    
       ELAPSED WALLCLOCK TIME (SEC) =          0

               CONVERGENCE CHECKS FOR EQUILIBRIUM ITERATION     1


 AVERAGE FORCE                      1.197E-02   TIME AVG. FORCE       6.123E-03
 LARGEST RESIDUAL FORCE             4.085E-06   AT NODE          9   DOF  1
   INSTANCE: ELEM1-1                                                                         
 LARGEST INCREMENT OF DISP.        -3.750E-05   AT NODE          1   DOF  2
   INSTANCE: ELEM1-1                                                                         
 LARGEST CORRECTION TO DISP.       -1.822E-06   AT NODE          4   DOF  3
   INSTANCE: ELEM1-1                                                                         
 ESTIMATE OF DISP.    CORRECTION    4.263E-09
 FORCE     EQUILIB. ACCEPTED BASED ON SMALL RESIDUAL AND ESTIMATED CORRECTION

 ITERATION SUMMARY FOR THE INCREMENT:   1 TOTAL ITERATIONS, OF WHICH
   0 ARE SEVERE DISCONTINUITY ITERATIONS AND  1 ARE EQUILIBRIUM ITERATIONS.

 TIME INCREMENT COMPLETED  5.000E-02,  FRACTION OF STEP COMPLETED  0.350    
 STEP TIME COMPLETED       0.350    ,  TOTAL TIME COMPLETED        0.350    


  INCREMENT     8 STARTS. ATTEMPT NUMBER  1, TIME INCREMENT  5.000E-02

  NUMBER OF EQUATIONS =       60     NUMBER OF FLOATING PT. OPERATIONS =  7.38E+04

     CHECK POINT   START OF SOLVER    

     CHECK POINT  END OF SOLVER       

       ELAPSED USER TIME (SEC)      =   0.0000    
       ELAPSED SYSTEM TIME (SEC)    =   0.0000    
       ELAPSED TOTAL CPU TIME (SEC) =   0.0000    
       ELAPSED WALLCLOCK TIME (SEC) =          0

               CONVERGENCE CHECKS FOR EQUILIBRIUM ITERATION     1


 AVERAGE FORCE                      1.457E-02   TIME AVG. FORCE       7.179E-03
 LARGEST RESIDUAL FORCE             4.785E-06   AT NODE          9   DOF  1
   INSTANCE: ELEM1-1                                                                         
 LARGEST INCREMENT OF DISP.        -3.750E-05   AT NODE          1   DOF  2
   INSTANCE: ELEM1-1                                                                         
 LARGEST CORRECTION TO DISP.       -2.051E-06   AT NODE         10   DOF  1
   INSTANCE: ELEM1-1                                                                         
 ESTIMATE OF DISP.    CORRECTION    5.303E-09
 FORCE     EQUILIB. ACCEPTED BASED ON SMALL RESIDUAL AND ESTIMATED CORRECTION

 ITERATION SUMMARY FOR THE INCREMENT:   1 TOTAL ITERATIONS, OF WHICH
   0 ARE SEVERE DISCONTINUITY ITERATIONS AND  1 ARE EQUILIBRIUM ITERATIONS.

 TIME INCREMENT COMPLETED  5.000E-02,  FRACTION OF STEP COMPLETED  0.400    
 STEP TIME COMPLETED       0.400    ,  TOTAL TIME COMPLETED        0.400    


  INCREMENT     9 STARTS. ATTEMPT NUMBER  1, TIME INCREMENT  5.000E-02

  NUMBER OF EQUATIONS =       60     NUMBER OF FLOATING PT. OPERATIONS =  7.38E+04

     CHECK POINT   START OF SOLVER    

     CHECK POINT  END OF SOLVER       

       ELAPSED USER TIME (SEC)      =   0.0000    
       ELAPSED SYSTEM TIME (SEC)    =   0.0000    
       ELAPSED TOTAL CPU TIME (SEC) =   0.0000    
       ELAPSED WALLCLOCK TIME (SEC) =          0

               CONVERGENCE CHECKS FOR EQUILIBRIUM ITERATION     1


 AVERAGE FORCE                      1.757E-02   TIME AVG. FORCE       8.333E-03
 LARGEST RESIDUAL FORCE             5.645E-06   AT NODE         12   DOF  1
   INSTANCE: ELEM1-1                                                                         
 LARGEST INCREMENT OF DISP.        -3.750E-05   AT NODE          1   DOF  2
   INSTANCE: ELEM1-1                                                                         
 LARGEST CORRECTION TO DISP.       -2.322E-06   AT NODE          8   DOF  3
   INSTANCE: ELEM1-1                                                                         
 ESTIMATE OF DISP.    CORRECTION    6.664E-09
 FORCE     EQUILIB. ACCEPTED BASED ON SMALL RESIDUAL AND ESTIMATED CORRECTION

 ITERATION SUMMARY FOR THE INCREMENT:   1 TOTAL ITERATIONS, OF WHICH
   0 ARE SEVERE DISCONTINUITY ITERATIONS AND  1 ARE EQUILIBRIUM ITERATIONS.

 TIME INCREMENT COMPLETED  5.000E-02,  FRACTION OF STEP COMPLETED  0.450    
 STEP TIME COMPLETED       0.450    ,  TOTAL TIME COMPLETED        0.450    


  INCREMENT    10 STARTS. ATTEMPT NUMBER  1, TIME INCREMENT  5.000E-02

  NUMBER OF EQUATIONS =       60     NUMBER OF FLOATING PT. OPERATIONS =  7.38E+04

     CHECK POINT   START OF SOLVER    

     CHECK POINT  END OF SOLVER       

       ELAPSED USER TIME (SEC)      =   0.0000    
       ELAPSED SYSTEM TIME (SEC)    =   0.0000    
       ELAPSED TOTAL CPU TIME (SEC) =   0.0000    
       ELAPSED WALLCLOCK TIME (SEC) =          0

               CONVERGENCE CHECKS FOR EQUILIBRIUM ITERATION     1


 AVERAGE FORCE                      2.103E-02   TIME AVG. FORCE       9.603E-03
 LARGEST RESIDUAL FORCE             6.711E-06   AT NODE         12   DOF  1
   INSTANCE: ELEM1-1                                                                         
 LARGEST INCREMENT OF DISP.        -3.750E-05   AT NODE          1   DOF  2
   INSTANCE: ELEM1-1                                                                         
 LARGEST CORRECTION TO DISP.       -2.645E-06   AT NODE          7   DOF  1
   INSTANCE: ELEM1-1                                                                         
 ESTIMATE OF DISP.    CORRECTION    8.471E-09
 FORCE     EQUILIB. ACCEPTED BASED ON SMALL RESIDUAL AND ESTIMATED CORRECTION

 ITERATION SUMMARY FOR THE INCREMENT:   1 TOTAL ITERATIONS, OF WHICH
   0 ARE SEVERE DISCONTINUITY ITERATIONS AND  1 ARE EQUILIBRIUM ITERATIONS.

 TIME INCREMENT COMPLETED  5.000E-02,  FRACTION OF STEP COMPLETED  0.500    
 STEP TIME COMPLETED       0.500    ,  TOTAL TIME COMPLETED        0.500    


  INCREMENT    11 STARTS. ATTEMPT NUMBER  1, TIME INCREMENT  5.000E-02

  NUMBER OF EQUATIONS =       60     NUMBER OF FLOATING PT. OPERATIONS =  7.38E+04

     CHECK POINT   START OF SOLVER    

     CHECK POINT  END OF SOLVER       

       ELAPSED USER TIME (SEC)      =   0.0000    
       ELAPSED SYSTEM TIME (SEC)    =   0.0000    
       ELAPSED TOTAL CPU TIME (SEC) =   0.0000    
       ELAPSED WALLCLOCK TIME (SEC) =          0

               CONVERGENCE CHECKS FOR EQUILIBRIUM ITERATION     1


 AVERAGE FORCE                      2.510E-02   TIME AVG. FORCE       1.101E-02
 LARGEST RESIDUAL FORCE             8.045E-06   AT NODE          9   DOF  1
   INSTANCE: ELEM1-1                                                                         
 LARGEST INCREMENT OF DISP.        -3.750E-05   AT NODE          1   DOF  2
   INSTANCE: ELEM1-1                                                                         
 LARGEST CORRECTION TO DISP.       -3.034E-06   AT NODE          8   DOF  1
   INSTANCE: ELEM1-1                                                                         
 ESTIMATE OF DISP.    CORRECTION    1.090E-08
 FORCE     EQUILIB. ACCEPTED BASED ON SMALL RESIDUAL AND ESTIMATED CORRECTION

 ITERATION SUMMARY FOR THE INCREMENT:   1 TOTAL ITERATIONS, OF WHICH
   0 ARE SEVERE DISCONTINUITY ITERATIONS AND  1 ARE EQUILIBRIUM ITERATIONS.

 TIME INCREMENT COMPLETED  5.000E-02,  FRACTION OF STEP COMPLETED  0.550    
 STEP TIME COMPLETED       0.550    ,  TOTAL TIME COMPLETED        0.550    


  INCREMENT    12 STARTS. ATTEMPT NUMBER  1, TIME INCREMENT  5.000E-02

  NUMBER OF EQUATIONS =       60     NUMBER OF FLOATING PT. OPERATIONS =  7.38E+04

     CHECK POINT   START OF SOLVER    

     CHECK POINT  END OF SOLVER       

       ELAPSED USER TIME (SEC)      =   0.0000    
       ELAPSED SYSTEM TIME (SEC)    =   0.0000    
       ELAPSED TOTAL CPU TIME (SEC) =   0.0000    
       ELAPSED WALLCLOCK TIME (SEC) =          0

               CONVERGENCE CHECKS FOR EQUILIBRIUM ITERATION     1


 AVERAGE FORCE                      2.993E-02   TIME AVG. FORCE       1.259E-02
 LARGEST RESIDUAL FORCE             9.734E-06   AT NODE         20   DOF  3
   INSTANCE: ELEM1-1                                                                         
 LARGEST INCREMENT OF DISP.        -3.986E-05   AT NODE          7   DOF  1
   INSTANCE: ELEM1-1                                                                         
 LARGEST CORRECTION TO DISP.       -3.508E-06   AT NODE          7   DOF  1
   INSTANCE: ELEM1-1                                                                         
 ESTIMATE OF DISP.    CORRECTION    1.424E-08
 FORCE     EQUILIB. ACCEPTED BASED ON SMALL RESIDUAL AND ESTIMATED CORRECTION

 ITERATION SUMMARY FOR THE INCREMENT:   1 TOTAL ITERATIONS, OF WHICH
   0 ARE SEVERE DISCONTINUITY ITERATIONS AND  1 ARE EQUILIBRIUM ITERATIONS.

 TIME INCREMENT COMPLETED  5.000E-02,  FRACTION OF STEP COMPLETED  0.600    
 STEP TIME COMPLETED       0.600    ,  TOTAL TIME COMPLETED        0.600    


  INCREMENT    13 STARTS. ATTEMPT NUMBER  1, TIME INCREMENT  5.000E-02

  NUMBER OF EQUATIONS =       60     NUMBER OF FLOATING PT. OPERATIONS =  7.38E+04

     CHECK POINT   START OF SOLVER    

     CHECK POINT  END OF SOLVER       

       ELAPSED USER TIME (SEC)      =   0.0000    
       ELAPSED SYSTEM TIME (SEC)    =   0.0000    
       ELAPSED TOTAL CPU TIME (SEC) =   0.0000    
       ELAPSED WALLCLOCK TIME (SEC) =          0

               CONVERGENCE CHECKS FOR EQUILIBRIUM ITERATION     1


 AVERAGE FORCE                      3.576E-02   TIME AVG. FORCE       1.437E-02
 LARGEST RESIDUAL FORCE             1.190E-05   AT NODE         12   DOF  1
   INSTANCE: ELEM1-1                                                                         
 LARGEST INCREMENT OF DISP.        -4.395E-05   AT NODE          5   DOF  1
   INSTANCE: ELEM1-1                                                                         
 LARGEST CORRECTION TO DISP.       -4.091E-06   AT NODE          5   DOF  1
   INSTANCE: ELEM1-1                                                                         
 ESTIMATE OF DISP.    CORRECTION    1.888E-08
 FORCE     EQUILIB. ACCEPTED BASED ON SMALL RESIDUAL AND ESTIMATED CORRECTION

 ITERATION SUMMARY FOR THE INCREMENT:   1 TOTAL ITERATIONS, OF WHICH
   0 ARE SEVERE DISCONTINUITY ITERATIONS AND  1 ARE EQUILIBRIUM ITERATIONS.

 TIME INCREMENT COMPLETED  5.000E-02,  FRACTION OF STEP COMPLETED  0.650    
 STEP TIME COMPLETED       0.650    ,  TOTAL TIME COMPLETED        0.650    


  INCREMENT    14 STARTS. ATTEMPT NUMBER  1, TIME INCREMENT  5.000E-02

  NUMBER OF EQUATIONS =       60     NUMBER OF FLOATING PT. OPERATIONS =  7.38E+04

     CHECK POINT   START OF SOLVER    

     CHECK POINT  END OF SOLVER       

       ELAPSED USER TIME (SEC)      =   0.0000    
       ELAPSED SYSTEM TIME (SEC)    =   0.0000    
       ELAPSED TOTAL CPU TIME (SEC) =   0.0000    
       ELAPSED WALLCLOCK TIME (SEC) =          0

               CONVERGENCE CHECKS FOR EQUILIBRIUM ITERATION     1


 AVERAGE FORCE                      4.291E-02   TIME AVG. FORCE       1.641E-02
 LARGEST RESIDUAL FORCE             1.470E-05   AT NODE         12   DOF  1
   INSTANCE: ELEM1-1                                                                         
 LARGEST INCREMENT OF DISP.        -4.877E-05   AT NODE          8   DOF  1
   INSTANCE: ELEM1-1                                                                         
 LARGEST CORRECTION TO DISP.       -4.818E-06   AT NODE          8   DOF  1
   INSTANCE: ELEM1-1                                                                         
 ESTIMATE OF DISP.    CORRECTION    2.548E-08
 FORCE     EQUILIB. ACCEPTED BASED ON SMALL RESIDUAL AND ESTIMATED CORRECTION

 ITERATION SUMMARY FOR THE INCREMENT:   1 TOTAL ITERATIONS, OF WHICH
   0 ARE SEVERE DISCONTINUITY ITERATIONS AND  1 ARE EQUILIBRIUM ITERATIONS.

 TIME INCREMENT COMPLETED  5.000E-02,  FRACTION OF STEP COMPLETED  0.700    
 STEP TIME COMPLETED       0.700    ,  TOTAL TIME COMPLETED        0.700    


  INCREMENT    15 STARTS. ATTEMPT NUMBER  1, TIME INCREMENT  5.000E-02

  NUMBER OF EQUATIONS =       60     NUMBER OF FLOATING PT. OPERATIONS =  7.38E+04

     CHECK POINT   START OF SOLVER    

     CHECK POINT  END OF SOLVER       

       ELAPSED USER TIME (SEC)      =   0.0000    
       ELAPSED SYSTEM TIME (SEC)    =   0.0000    
       ELAPSED TOTAL CPU TIME (SEC) =   0.0000    
       ELAPSED WALLCLOCK TIME (SEC) =          0

               CONVERGENCE CHECKS FOR EQUILIBRIUM ITERATION     1


 AVERAGE FORCE                      5.185E-02   TIME AVG. FORCE       1.877E-02
 LARGEST RESIDUAL FORCE             1.838E-05   AT NODE          9   DOF  1
   INSTANCE: ELEM1-1                                                                         
 LARGEST INCREMENT OF DISP.        -5.451E-05   AT NODE          4   DOF  3
   INSTANCE: ELEM1-1                                                                         
 LARGEST CORRECTION TO DISP.       -5.736E-06   AT NODE          4   DOF  3
   INSTANCE: ELEM1-1                                                                         
 ESTIMATE OF DISP.    CORRECTION    3.507E-08
 FORCE     EQUILIB. ACCEPTED BASED ON SMALL RESIDUAL AND ESTIMATED CORRECTION

 ITERATION SUMMARY FOR THE INCREMENT:   1 TOTAL ITERATIONS, OF WHICH
   0 ARE SEVERE DISCONTINUITY ITERATIONS AND  1 ARE EQUILIBRIUM ITERATIONS.

 TIME INCREMENT COMPLETED  5.000E-02,  FRACTION OF STEP COMPLETED  0.750    
 STEP TIME COMPLETED       0.750    ,  TOTAL TIME COMPLETED        0.750    


  INCREMENT    16 STARTS. ATTEMPT NUMBER  1, TIME INCREMENT  5.000E-02

  NUMBER OF EQUATIONS =       60     NUMBER OF FLOATING PT. OPERATIONS =  7.38E+04

     CHECK POINT   START OF SOLVER    

     CHECK POINT  END OF SOLVER       

       ELAPSED USER TIME (SEC)      =   0.0000    
       ELAPSED SYSTEM TIME (SEC)    =   0.0000    
       ELAPSED TOTAL CPU TIME (SEC) =   0.0000    
       ELAPSED WALLCLOCK TIME (SEC) =          0

               CONVERGENCE CHECKS FOR EQUILIBRIUM ITERATION     1


 AVERAGE FORCE                      6.325E-02   TIME AVG. FORCE       2.155E-02
 LARGEST RESIDUAL FORCE             2.328E-05   AT NODE         20   DOF  3
   INSTANCE: ELEM1-1                                                                         
 LARGEST INCREMENT OF DISP.        -6.142E-05   AT NODE          8   DOF  3
   INSTANCE: ELEM1-1                                                                         
 LARGEST CORRECTION TO DISP.       -6.913E-06   AT NODE          8   DOF  3
   INSTANCE: ELEM1-1                                                                         
 ESTIMATE OF DISP.    CORRECTION    4.939E-08
 FORCE     EQUILIB. ACCEPTED BASED ON SMALL RESIDUAL AND ESTIMATED CORRECTION

 ITERATION SUMMARY FOR THE INCREMENT:   1 TOTAL ITERATIONS, OF WHICH
   0 ARE SEVERE DISCONTINUITY ITERATIONS AND  1 ARE EQUILIBRIUM ITERATIONS.

 TIME INCREMENT COMPLETED  5.000E-02,  FRACTION OF STEP COMPLETED  0.800    
 STEP TIME COMPLETED       0.800    ,  TOTAL TIME COMPLETED        0.800    


  INCREMENT    17 STARTS. ATTEMPT NUMBER  1, TIME INCREMENT  5.000E-02

  NUMBER OF EQUATIONS =       60     NUMBER OF FLOATING PT. OPERATIONS =  7.38E+04

     CHECK POINT   START OF SOLVER    

     CHECK POINT  END OF SOLVER       

       ELAPSED USER TIME (SEC)      =   0.0000    
       ELAPSED SYSTEM TIME (SEC)    =   0.0000    
       ELAPSED TOTAL CPU TIME (SEC) =   0.0000    
       ELAPSED WALLCLOCK TIME (SEC) =          0

               CONVERGENCE CHECKS FOR EQUILIBRIUM ITERATION     1


 AVERAGE FORCE                      7.818E-02   TIME AVG. FORCE       2.488E-02
 LARGEST RESIDUAL FORCE             2.989E-05   AT NODE         15   DOF  3
   INSTANCE: ELEM1-1                                                                         
 LARGEST INCREMENT OF DISP.        -6.986E-05   AT NODE          5   DOF  1
   INSTANCE: ELEM1-1                                                                         
 LARGEST CORRECTION TO DISP.       -8.447E-06   AT NODE          8   DOF  1
   INSTANCE: ELEM1-1                                                                         
 ESTIMATE OF DISP.    CORRECTION    7.133E-08
 FORCE     EQUILIB. ACCEPTED BASED ON SMALL RESIDUAL AND ESTIMATED CORRECTION

 ITERATION SUMMARY FOR THE INCREMENT:   1 TOTAL ITERATIONS, OF WHICH
   0 ARE SEVERE DISCONTINUITY ITERATIONS AND  1 ARE EQUILIBRIUM ITERATIONS.

 TIME INCREMENT COMPLETED  5.000E-02,  FRACTION OF STEP COMPLETED  0.850    
 STEP TIME COMPLETED       0.850    ,  TOTAL TIME COMPLETED        0.850    


  INCREMENT    18 STARTS. ATTEMPT NUMBER  1, TIME INCREMENT  5.000E-02

  NUMBER OF EQUATIONS =       60     NUMBER OF FLOATING PT. OPERATIONS =  7.38E+04

     CHECK POINT   START OF SOLVER    

     CHECK POINT  END OF SOLVER       

       ELAPSED USER TIME (SEC)      =   0.0000    
       ELAPSED SYSTEM TIME (SEC)    =   0.0000    
       ELAPSED TOTAL CPU TIME (SEC) =   0.0000    
       ELAPSED WALLCLOCK TIME (SEC) =          0

               CONVERGENCE CHECKS FOR EQUILIBRIUM ITERATION     1


 AVERAGE FORCE                      9.832E-02   TIME AVG. FORCE       2.896E-02
 LARGEST RESIDUAL FORCE             3.890E-05   AT NODE         20   DOF  3
   INSTANCE: ELEM1-1                                                                         
 LARGEST INCREMENT OF DISP.        -8.035E-05   AT NODE          7   DOF  3
   INSTANCE: ELEM1-1                                                                         
 LARGEST CORRECTION TO DISP.       -1.048E-05   AT NODE         20   DOF  3
   INSTANCE: ELEM1-1                                                                         
 ESTIMATE OF DISP.    CORRECTION    1.060E-07
 FORCE     EQUILIB. ACCEPTED BASED ON SMALL RESIDUAL AND ESTIMATED CORRECTION

 ITERATION SUMMARY FOR THE INCREMENT:   1 TOTAL ITERATIONS, OF WHICH
   0 ARE SEVERE DISCONTINUITY ITERATIONS AND  1 ARE EQUILIBRIUM ITERATIONS.

 TIME INCREMENT COMPLETED  5.000E-02,  FRACTION OF STEP COMPLETED  0.900    
 STEP TIME COMPLETED       0.900    ,  TOTAL TIME COMPLETED        0.900    


  INCREMENT    19 STARTS. ATTEMPT NUMBER  1, TIME INCREMENT  5.000E-02

  NUMBER OF EQUATIONS =       60     NUMBER OF FLOATING PT. OPERATIONS =  7.38E+04

     CHECK POINT   START OF SOLVER    

     CHECK POINT  END OF SOLVER       

       ELAPSED USER TIME (SEC)      =   0.0000    
       ELAPSED SYSTEM TIME (SEC)    =   0.0000    
       ELAPSED TOTAL CPU TIME (SEC) =   0.0000    
       ELAPSED WALLCLOCK TIME (SEC) =          0

               CONVERGENCE CHECKS FOR EQUILIBRIUM ITERATION     1


 AVERAGE FORCE                      0.126       TIME AVG. FORCE       3.410E-02
 LARGEST RESIDUAL FORCE             5.120E-05   AT NODE         12   DOF  1
   INSTANCE: ELEM1-1                                                                         
 LARGEST INCREMENT OF DISP.        -9.357E-05   AT NODE          4   DOF  3
   INSTANCE: ELEM1-1                                                                         
 LARGEST CORRECTION TO DISP.       -1.322E-05   AT NODE          4   DOF  3
   INSTANCE: ELEM1-1                                                                         
 ESTIMATE OF DISP.    CORRECTION    1.626E-07
 FORCE     EQUILIB. ACCEPTED BASED ON SMALL RESIDUAL AND ESTIMATED CORRECTION

 ITERATION SUMMARY FOR THE INCREMENT:   1 TOTAL ITERATIONS, OF WHICH
   0 ARE SEVERE DISCONTINUITY ITERATIONS AND  1 ARE EQUILIBRIUM ITERATIONS.

 TIME INCREMENT COMPLETED  5.000E-02,  FRACTION OF STEP COMPLETED  0.950    
 STEP TIME COMPLETED       0.950    ,  TOTAL TIME COMPLETED        0.950    


  INCREMENT    20 STARTS. ATTEMPT NUMBER  1, TIME INCREMENT  5.000E-02

  NUMBER OF EQUATIONS =       60     NUMBER OF FLOATING PT. OPERATIONS =  7.38E+04

     CHECK POINT   START OF SOLVER    

     CHECK POINT  END OF SOLVER       

       ELAPSED USER TIME (SEC)      =   0.0000    
       ELAPSED SYSTEM TIME (SEC)    =   0.0000    
       ELAPSED TOTAL CPU TIME (SEC) =   0.0000    
       ELAPSED WALLCLOCK TIME (SEC) =          0

               CONVERGENCE CHECKS FOR EQUILIBRIUM ITERATION     1


 AVERAGE FORCE                      0.168       TIME AVG. FORCE       4.078E-02
 LARGEST RESIDUAL FORCE             6.770E-05   AT NODE          9   DOF  1
   INSTANCE: ELEM1-1                                                                         
 LARGEST INCREMENT OF DISP.        -1.105E-04   AT NODE          5   DOF  1
   INSTANCE: ELEM1-1                                                                         
 LARGEST CORRECTION TO DISP.       -1.695E-05   AT NODE          5   DOF  1
   INSTANCE: ELEM1-1                                                                         
 ESTIMATE OF DISP.    CORRECTION    2.574E-07
 FORCE     EQUILIB. ACCEPTED BASED ON SMALL RESIDUAL AND ESTIMATED CORRECTION

 ITERATION SUMMARY FOR THE INCREMENT:   1 TOTAL ITERATIONS, OF WHICH
   0 ARE SEVERE DISCONTINUITY ITERATIONS AND  1 ARE EQUILIBRIUM ITERATIONS.

 TIME INCREMENT COMPLETED  5.000E-02,  FRACTION OF STEP COMPLETED   1.00    
 STEP TIME COMPLETED        1.00    ,  TOTAL TIME COMPLETED         1.00    


          THE ANALYSIS HAS BEEN COMPLETED



     ANALYSIS SUMMARY:
     TOTAL OF         20  INCREMENTS
                       0  CUTBACKS IN AUTOMATIC INCREMENTATION
                      21  ITERATIONS INCLUDING CONTACT ITERATIONS IF PRESENT
                      21  PASSES THROUGH THE EQUATION SOLVER OF WHICH 
                      21  INVOLVE MATRIX DECOMPOSITION, INCLUDING
                       0  DECOMPOSITION(S) OF THE MASS MATRIX
                       1  REORDERING OF EQUATIONS TO MINIMIZE WAVEFRONT
                       0  ADDITIONAL RESIDUAL EVALUATIONS FOR LINE SEARCHES
                       0  ADDITIONAL OPERATOR EVALUATIONS FOR LINE SEARCHES
                       1  WARNING MESSAGES DURING USER INPUT PROCESSING
                       0  WARNING MESSAGES DURING ANALYSIS
                       0  ANALYSIS WARNINGS ARE NUMERICAL PROBLEM MESSAGES
                       0  ANALYSIS WARNINGS ARE NEGATIVE EIGENVALUE MESSAGES
                       0  ERROR MESSAGES



     JOB TIME SUMMARY
       USER TIME (SEC)      =  0.30000    
       SYSTEM TIME (SEC)    =   0.0000    
       TOTAL CPU TIME (SEC) =  0.30000    
       WALLCLOCK TIME (SEC) =          1
